36
 energy: -51.080102335317 gnorm: 0.132093911378 xtb: 6.4.1 (79825abcba525fcdf90b791dcacef51065a7a4e7)
C         1.86882487897299    0.04373721206074   -0.93860847699747
C         3.08827125592487    0.15171599326912   -0.00257952872385
C         3.84459079459244   -1.18824409351464   -0.04867272342203
C         3.97955377149011   -2.02845230542651    1.21862179645038
C         3.88092056945301   -1.17127698384044    2.48265769699647
C         5.04671502605363   -0.19126940813128    2.69396668947972
C         5.17009161865842    0.94408022975960    1.65807508280149
C         3.81253073375630    1.67622833951553    1.65948994288212
C         2.66898449270542    0.67994651573343    1.39153067336658
C         2.54456768192303   -0.43239732659008    2.43657330990023
N         1.35748384705234   -1.26776027255263    2.28395355950283
N         6.16520222430400    1.86587549141444    2.20719124137010
C         7.34445673857462    2.06218385323685    1.56786155184498
N         7.72354607372972    1.37517338044355    0.48303190789680
S         9.28153025902832    1.86804857943994    0.13776246160964
N         9.38180392817944    2.94376354318262    1.41092889280279
N         8.21960420923176    3.04741085130123    2.02946782723510
H         1.24982482860245    0.85550977893262   -0.54085596211434
H         1.30754998655957   -0.88019698047445   -0.75833916122354
H         2.27424420610739    0.14891417756168   -1.94850076312460
H         3.73837281626296    0.89578974500475   -0.48378469657704
H         4.84324332868831   -0.95400942429933   -0.44134118549754
H         3.46196438518548   -1.79157869224406   -0.88424518636255
H         4.93552695014297   -2.56526040491725    1.15323884715197
H         3.17838389020011   -2.77873771331850    1.28227085662852
H         3.85161239874249   -1.96964992427245    3.24186678582798
H         5.99984144850419   -0.73370816903053    2.74722081097612
H         4.94903266953850    0.28387319852880    3.68169667568986
H         5.53108894996773    0.50638704112677    0.71951592408558
H         3.59573073974199    2.55079207125076    1.03012798499180
H         3.68275964866321    2.03332662376654    2.69360106580091
H         1.76016038927736    1.29899898823590    1.37975616854476
H         2.53078670850834    0.02186236053126    3.43572084000218
H         1.27458498222985   -1.59002347360878    1.31858290668743
H         0.56808905414916   -0.65119323259770    2.47913413454549
H         5.81222860131477    2.46125204022772    2.95402447576020
