36
 energy: -51.084048760245 gnorm: 0.124617898298 xtb: 6.4.1 (79825abcba525fcdf90b791dcacef51065a7a4e7)
C         2.18388314772718    0.39101053241044   -1.21227178811562
C         3.18867101149840    0.03390505082322   -0.09973587269708
C         3.36847088414601   -1.49409581623264   -0.04951315317800
C         4.14930868346185   -1.88123865770244    1.20372787907626
C         3.72117165083834   -1.25702594582378    2.53388654139344
C         4.87396729956694   -0.34019013246816    2.97504119625598
C         5.25490165591767    0.75811681968289    1.96216268266667
C         3.93789737117453    1.54516246911364    1.80381719597171
C         2.83180225157373    0.60113682961907    1.29642494855709
C         2.44544241435323   -0.43581830583381    2.35489211065026
N         1.21519735919081   -1.16855999518144    2.07226359847750
N         6.40455220693552    1.54854798732228    2.40375335390730
C         7.46364121069425    1.91818182294032    1.64242432366044
N         7.53409612543879    1.77696301393006    0.31289779784037
S         8.96006839679661    2.48994296120993   -0.18481129147357
N         9.47011990207300    2.80353188450982    1.37393169537219
N         8.58477162391513    2.44572196864628    2.28616623055483
H         1.31230743945515   -0.27076525470046   -1.15981774672743
H         2.72312160984579    0.20317188971807   -2.14774998879498
H         1.97642332665511    1.46444427987161   -1.21541492816526
H         4.12429351673013    0.55601417439344   -0.34437608614711
H         3.92529297078618   -1.94869441831651   -0.87996519448177
H         2.33494757316097   -1.86359886852076    0.01288912096746
H         5.16828294480871   -1.53737375010151    0.98063372101679
H         4.24149023774066   -2.93650882336701    1.49827846890753
H         3.60373517836382   -2.06047796058177    3.27909144389486
H         5.68831745086443   -1.02049066926777    3.25708874041180
H         4.54425647307304    0.25981586709175    3.83654944481562
H         5.63296482823652    0.37592767875404    1.00624040165813
H         4.09728594269723    2.40045230117227    1.13222576921203
H         3.84299028047416    2.04104744491671    2.78301905536253
H         1.91814619852883    1.19033796358422    1.13089382131745
H         2.31961915838465    0.13284981701232    3.28528057140992
H         0.36678273413334   -0.62118960211594    2.22472533549688
H         1.01775541827290   -2.01355589545737    2.60928606451335
H         6.51006447560154    1.88377298903637    3.35942842342580
