36
 energy: -51.087079867478 gnorm: 0.129726307326 xtb: 6.4.1 (79825abcba525fcdf90b791dcacef51065a7a4e7)
C         2.33312180769807    0.65530621106559   -1.17899570328154
C         3.27254599781653    0.10090909903274   -0.09042539354008
C         3.44530873666863   -1.42858498483100   -0.06949662314215
C         4.36783100484690   -1.79738496762663    1.08944240836797
C         3.85259323192548   -1.30920811933214    2.44534743030916
C         4.92816921708404   -0.33980690361530    2.96259094296581
C         5.17726173914618    0.92590435231796    2.11805552470650
C         3.87372548034471    1.70679394627520    1.85344407166262
C         2.87542781463867    0.67772660479666    1.29086066674349
C         2.59674913362582   -0.45447270648956    2.28351656977034
N         1.43699570242571   -1.28965690058886    1.98732131047705
N         6.28187987663382    1.75383604931685    2.60367690142637
C         7.32000255700324    2.02612917239829    1.77537840991955
N         7.78815445306354    1.03999863487321    1.00018306361648
S         9.00748658597207    1.68334135181218    0.05742595517195
N         8.90995619471213    3.19466575192171    0.76067315832102
N         7.99071378357207    3.24889115465454    1.70729575988318
H         1.40929753916852    0.07882408663170   -1.29966033600789
H         2.69469641559113    0.77172111789474   -2.20704840453761
H         1.96830264468954    1.64883706503392   -0.90492833816274
H         4.28523458614943    0.48555434098324   -0.27575261499192
H         3.95056327894915   -1.73964266258085   -0.99379221450572
H         2.47822166597620   -1.92781735019206    0.08576664309921
H         5.40056539165228   -1.54140933756137    0.81693766425482
H         4.37366883498279   -2.89286607691590    1.18292883318582
H         3.57009026829043   -2.11562040457374    3.14144238772564
H         5.85216237166350   -0.93007950799498    3.02039018919420
H         4.69134713723970   -0.11231037974357    4.01286403174971
H         5.51130495048808    0.55849917304658    1.14019237960450
H         4.06657165941631    2.52417787007072    1.14446283603467
H         3.52327389758712    2.16280410831253    2.79311637092714
H         1.87758323000761    1.13727581909053    1.24139641760138
H         2.51792504533577    0.06009068583384    3.24987518390375
H         0.52989255350205   -0.82923642031552    1.89875950187634
H         1.34255238900259   -1.89290105370870    2.80498352330218
H         5.85727187410376    2.58391191330223    3.01295140549006
