36
 energy: -51.093403054591 gnorm: 0.124519954259 xtb: 6.4.1 (79825abcba525fcdf90b791dcacef51065a7a4e7)
C         1.53132390117411    0.05418065332895   -0.97565202803428
C         2.87409072293348   -0.05916003917008   -0.22799553263109
C         3.00390662468699   -1.57200285437439    0.02516714013078
C         3.95290869817278   -2.07298477119545    1.11080633260419
C         3.78871527348048   -1.27103594198957    2.40393564094683
C         5.05516251562499   -0.44551823542619    2.68460445876224
C         5.40670362672622    0.65469407402503    1.66320164185708
C         4.17200078533236    1.51764511390243    1.33178228520332
C         2.87499661499250    0.71656973528720    1.11238301012073
C         2.67049977842794   -0.23596511380796    2.29380626914015
N         1.38786026355391   -0.91641042239849    2.14507105943417
N         6.40980579183085    1.49924421051503    2.31281789616337
C         7.53912971517492    1.90072323080251    1.67928596683549
N         7.96738200345650    1.62692032549190    0.44066600451726
S         9.37158519955498    2.50577909358393    0.22789306762868
N         9.35614360447774    3.21648662543095    1.73879565058014
N         8.29892496708293    2.81003820939208    2.41786104000582
H         0.78944152441538   -0.47883209051392   -0.37079603124525
H         1.54552845672751   -0.36817933115610   -1.98688454241362
H         1.21925595415999    1.09884798130240   -1.05685069215830
H         3.70904930628873    0.31495147439515   -0.83686410717992
H         3.34525701942359   -1.99103024485853   -0.93100086267249
H         2.00203627469326   -1.89504393279732    0.34218011218637
H         4.97649027103170   -1.95264915360463    0.73117138062674
H         3.77292318572823   -3.15497743725336    1.18663287070502
H         3.68062775436639   -1.89209804602282    3.30795761093692
H         5.88943663770221   -1.14730264288123    2.81503116932118
H         4.91347015310318    0.07971586113403    3.64114263944980
H         5.86953090102495    0.34080446765509    0.71977600920793
H         4.43633421734458    2.37187953554152    0.69274253216848
H         3.93400104664210    2.00191939549698    2.29229260929779
H         1.98230026061026    1.35870307640966    1.10322566309022
H         2.68622843508503    0.34380426367115    3.22571702167208
H         0.73237353898451   -0.13728310743613    2.22229851677300
H         1.15040674317801   -1.64992518881488    2.81362653325907
H         6.32503760876196    1.91602476987171    3.23798372600207
