36
 energy: -51.096843582028 gnorm: 0.129335620264 xtb: 6.4.1 (79825abcba525fcdf90b791dcacef51065a7a4e7)
C         1.94407127447945    0.27989017511356   -1.13752323413514
C         3.08803520450162   -0.03643625578988   -0.15459739829309
C         3.30289295222336   -1.55219856123706    0.00645435189563
C         4.10473717497925   -2.00229737814802    1.22491943596412
C         3.78485824256499   -1.23005964555453    2.50694562923810
C         5.01037889007310   -0.37927370919847    2.87897453134891
C         5.30382620552894    0.73258695018975    1.85185889959795
C         4.04502187341061    1.57479867277370    1.56013051449457
C         2.85004440586361    0.67153215717484    1.20205777314159
C         2.55527728127255   -0.34542110115766    2.30832216692704
N         1.31089779832077   -1.09781942508137    2.18298843729723
N         6.34611785687295    1.63468900165113    2.34310234941828
C         7.48350027952171    1.86686514975035    1.64283379523761
N         7.57171686667483    1.86495114662915    0.30688409493811
S         9.07181341938887    2.52564206584904   -0.01350552540279
N         9.50869113292430    2.81888466985014    1.57120797846482
N         8.49092073179448    2.51830414056873    2.35723349531778
H         1.03985403569806   -0.22405806080442   -0.77867760882803
H         2.11594074290642    0.01692471836469   -2.18751893741854
H         1.72255785795457    1.35046463462716   -1.14808670608501
H         3.95478299506204    0.54294554771562   -0.50230589921838
H         3.79200252229460   -2.00490183504498   -0.86658222598051
H         2.31527270878677   -2.02198612007956    0.11827054937415
H         5.18518240439459   -1.96994475389879    1.03020424921488
H         3.98494324653774   -3.09107952782597    1.32007942299521
H         3.60861249662103   -1.95561438757869    3.31760247540591
H         5.91369203642541   -0.99938750737672    2.94975604531335
H         4.73830075422388    0.10434163996241    3.82923899164654
H         5.62321444730908    0.25059059814171    0.91994777029832
H         4.21631988673171    2.28822364213511    0.74181380863479
H         3.75419849275275    2.08622628447128    2.49158587252479
H         1.96997062646111    1.31970975108476    1.08097177952852
H         2.45927821137131    0.29134861607056    3.19722378002221
H         0.49701502638140   -0.56775338643732    1.86788351035073
H         1.02302530112010   -1.62100063343702    3.01051810496321
H         6.30888375099889    1.76675502951439    3.35206005890178
