36
 energy: -51.084688610542 gnorm: 0.127335223997 xtb: 6.4.1 (79825abcba525fcdf90b791dcacef51065a7a4e7)
C         1.25817937119468    0.17513023647237   -0.70580739467219
C         2.70148878077407    0.15582661510662   -0.16604412307321
C         3.25596669609208   -1.27958660608649   -0.20823414822246
C         4.43042808188503   -1.56809435117385    0.72321846750992
C         4.33792521252498   -1.09395627659631    2.17542406125241
C         5.29666845961768    0.05877831523532    2.51624275635359
C         5.09754304238127    1.26057533718015    1.57107349677042
C         3.63643994104315    1.75303457800002    1.53013483356093
C         2.64782379807053    0.59103568359359    1.31924550000656
C         2.92182237138767   -0.53835949357264    2.31638832215239
N         1.86513558327824   -1.52370833839399    2.10952417306787
N         6.01221153352876    2.35178990595258    1.90887880645074
C         7.33447855810954    2.14820380412855    1.68959998841055
N         7.76155471984399    1.00816658122138    1.13240296964052
S         9.36338205124418    1.31544479403801    0.77298542577030
N         9.43422916834540    2.86975390363351    1.37901688392576
N         8.27481233088307    3.14780876894200    1.94688961920885
H         0.55558526975481   -0.19895640018357    0.04702959564547
H         1.17928674875102   -0.52166724745431   -1.54808415629444
H         0.73510900202450    1.07959719991534   -1.02774891935558
H         3.35455679418305    0.82486008653666   -0.74374004094090
H         3.56623851710087   -1.60126562583289   -1.21153634030155
H         2.41485630356372   -1.97658590811110   -0.08445116188289
H         5.41533664935955   -1.19825105742864    0.40779234809642
H         4.52501873069315   -2.65362365214232    0.57648293576842
H         4.48248454775646   -1.88882711722273    2.92505043350686
H         6.33675467400574   -0.28780625021640    2.57645544524866
H         5.10377509004938    0.48163666222816    3.51368740173606
H         5.33226485678197    1.06334123990461    0.51808153919362
H         3.45739460904842    2.49886480353776    0.74296238535970
H         3.40814107709731    2.16778627466668    2.52492434561602
H         1.69106593285755    1.03773852680586    1.62648615391312
H         2.84169351030187   -0.10329593350211    3.32094624917904
H         1.00387910226081   -0.98715026694372    2.22358120698587
H         1.91981629727203   -2.21651871238055    2.85679809615584
H         5.80684654813142    3.08771648208221    2.58197669063762
