36
 energy: -51.096798339620 gnorm: 0.121463621025 xtb: 6.4.1 (79825abcba525fcdf90b791dcacef51065a7a4e7)
C         1.52445821005949    0.44624199706361   -0.94674762479153
C         2.84075004482385    0.14438579021520   -0.20437458145493
C         3.25493777102223   -1.33810832046227   -0.22159801774146
C         4.33901371047784   -1.66985152343884    0.80061824310885
C         4.17898513357920   -1.09000738716816    2.20789805013504
C         5.18247859444487   -0.02285194180620    2.67514876402591
C         5.09227320719296    1.16439590867902    1.69554805882248
C         3.63737207822735    1.67003379749114    1.61426192925291
C         2.62821471981452    0.55776291475364    1.27289325289439
C         2.77186662877356   -0.51409270337777    2.35704831142457
N         1.75751091571132   -1.56325595495155    2.38216933019270
N         6.03624710703288    2.23074531537235    2.03213738609507
C         7.33981128708044    2.04423989980334    1.70986921439410
N         7.78256160861967    1.12059086974665    0.84766733493124
S         9.36979652135317    1.49508386571429    0.48726201298225
N         9.44096260996790    2.87290093351945    1.42786063471630
N         8.28385930526783    3.01583364551139    2.04812149839765
H         0.76271301675209   -0.22904832432246   -0.54169198939516
H         1.70194291001689    0.32803550352818   -2.02178591972653
H         1.26877078578657    1.46592260838880   -0.64643969609895
H         3.63798372496214    0.80682290673724   -0.56965767300094
H         3.53276299655148   -1.61576714770169   -1.24730753515495
H         2.32251848146406   -1.85325457419215    0.05009219018558
H         5.25721217661745   -1.24438071592503    0.37375905094845
H         4.37524745265556   -2.76435291927250    0.89863047899135
H         4.33259261942414   -1.92843629295047    2.90653851279491
H         6.17841691387607   -0.48505325031554    2.67676431365897
H         4.98596729507355    0.36770668543218    3.68498050144108
H         5.40961324515407    0.83724543784221    0.69802333467308
H         3.60269778813997    2.44410205720213    0.83479001474981
H         3.28132272931160    2.14758992909547    2.54103834624977
H         1.62005467745334    0.98157340232937    1.38832236467246
H         2.70663879467392   -0.10431247266598    3.37324861935170
H         0.84396759690121   -1.21676297134980    2.67889734032606
H         2.02536972040447   -2.37997336197317    2.93227736432143
H         5.78293032350645    3.04174118054523    2.59333235625214
