36
 energy: -51.090217634982 gnorm: 0.136115156087 xtb: 6.4.1 (79825abcba525fcdf90b791dcacef51065a7a4e7)
C         1.32587823521831    0.45548022389147   -0.76535570503635
C         2.71524381421368    0.13818203722516   -0.17897337328170
C         2.92314393648472   -1.38703720874262   -0.18995923567413
C         4.16602121934764   -1.76686571332244    0.61078206707640
C         4.13282282449358   -1.29028157491449    2.06475257342671
C         5.28009752865174   -0.34008272042478    2.44557532865276
C         5.26563955790130    0.91318917533908    1.54757059245662
C         3.86475231678858    1.55853003620586    1.53953914582122
C         2.69216539451915    0.58848992487565    1.30260090440829
C         2.86667212773556   -0.49283753411938    2.37273212962669
N         1.75019267233250   -1.43284049162110    2.38538795428324
N         6.10873855719826    1.97931878761518    2.08981766173303
C         7.37702661222334    2.10820280805643    1.62856401224273
N         8.08111587692594    1.09761599939331    1.10366396688917
S         9.59281860538087    1.73437290973161    0.78942334738167
N         9.22462883748378    3.26455723926743    1.34722480326553
N         7.99129416812202    3.34865679865952    1.81182594377912
H         0.67915066027852   -0.26450972324563   -0.25183769630456
H         1.39095120811542    0.21826630293070   -1.83338004553376
H         1.11908931595257    1.52296021088270   -0.65118795117900
H         3.57132604864252    0.60305921369597   -0.68774505181328
H         2.93752707916303   -1.70924590105623   -1.23988112456676
H         2.06201292481571   -1.82177644957698    0.33734725375396
H         5.05598071310701   -1.37956120132376    0.09669072803727
H         4.30337249049881   -2.85000392932810    0.74039231392388
H         4.21177671023419   -2.10901462100706    2.79830506217497
H         6.24797339787937   -0.85646038653391    2.39979114467813
H         5.21646252566454    0.03633341203944    3.47764816787606
H         5.65652584367388    0.62302785186661    0.56481833124108
H         3.98779541536568    2.33935079995267    0.77590325896225
H         3.61195098459624    2.18044008764275    2.41307500193127
H         1.68406506822358    0.97083858731031    1.51909361928845
H         2.95637079920238    0.00786085359553    3.34540516873665
H         0.87620045548498   -0.90501144015158    2.39954397551461
H         1.72440983201451   -1.99745686526562    3.23505736459637
H         5.59891458950437    2.76338444835495    2.49248879961105
