36
 energy: -51.090026111914 gnorm: 0.118973092096 xtb: 6.4.1 (79825abcba525fcdf90b791dcacef51065a7a4e7)
C         2.18498346501373    0.58826419670074   -1.11130601802333
C         3.15982024896234   -0.04205801869175   -0.09777444737762
C         3.09443472256626   -1.57650575030287    0.00630147527923
C         4.05407875585581   -2.04919955621997    1.09526620424748
C         3.75845567135674   -1.36614072908519    2.43254046995592
C         4.94451992621875   -0.53572552153923    2.95003951797032
C         5.35746879067127    0.59377497505164    1.98514892400601
C         4.17036202128779    1.52895367447161    1.67655091646064
C         2.96064072721654    0.67014326278746    1.26291251902051
C         2.60639533931364   -0.36791708574210    2.33148327106562
N         1.31237022910285   -0.97011978672902    2.02628983933342
N         6.39471892434281    1.48476260232656    2.50642942523502
C         7.43758128576619    1.93586288183027    1.76692469847479
N         7.82648782337165    1.35302921830019    0.62604605424493
S         9.09527635867245    2.22205253432268   -0.02543364210879
N         8.97207386336966    3.43899535241816    1.11124642469456
N         8.15175046954019    3.09237498214680    2.08642087424685
H         1.18585971991884    0.19547913179422   -0.89264084420334
H         2.50150525189010    0.20190018263013   -2.08686623496406
H         2.29140225749525    1.67582508227224   -1.07672541659737
H         4.14324694017938    0.19086075064414   -0.52958111912646
H         3.33639598409738   -1.95864836025695   -0.99458966302772
H         2.09322758050048   -1.88764466681930    0.33701856672200
H         5.04428986185989   -1.69790520154490    0.77527113415688
H         4.12126603332819   -3.13848126896921    1.22869710078375
H         3.69810561103188   -2.15287612766017    3.20199616304447
H         5.73010214713083   -1.28456825210912    3.11623499260265
H         4.72334139279551   -0.26636221318727    3.99380018353461
H         5.74968939066557    0.05237095925714    1.11576270826589
H         4.50751814383641    2.29176269557147    0.96072371437299
H         3.80576484662855    2.07183275121844    2.56317188438025
H         2.14815534123641    1.40529256015839    1.16937703038692
H         2.59843513617513    0.14530060438252    3.30173159956281
H         0.61530056487766   -0.27064314227617    1.76649645560317
H         0.97865155975323   -1.40414550314906    2.88747973817668
H         5.99298492960856    2.11700731063432    3.19613945091514
