36
 energy: -51.089513491904 gnorm: 0.132233674316 xtb: 6.4.1 (79825abcba525fcdf90b791dcacef51065a7a4e7)
C         1.61196928820394    0.24620543276440   -0.93951741214640
C         2.94022691571471    0.20746015603908   -0.15907550039112
C         3.31288273167055   -1.28362053510225   -0.07280309197907
C         4.42663047974020   -1.58934673807376    0.92534405384575
C         4.13224427088871   -1.07776529596436    2.33739434345107
C         5.09568292757921    0.03519774047753    2.78151406472261
C         5.05459285522637    1.16786316197776    1.73619466176717
C         3.62786192161838    1.74716046614079    1.82489577611115
C         2.65031643919697    0.68661117460754    1.28478681401473
C         2.74075049194578   -0.44779064493509    2.30941197868833
N         1.79955076035730   -1.53157500591124    2.04512683460772
N         6.02823619758592    2.22012358948646    2.02987267017317
C         7.29302855086315    2.16769479173345    1.54461797405264
N         7.72143321248775    1.10201303503631    0.85662140171975
S         9.32577366351817    1.38307779773405    0.48710011243862
N         9.42431493546705    2.77771302927591    1.40003627568167
N         8.23458547716700    3.15905418933527    1.82801301701436
H         0.88752674720107   -0.33657437256381   -0.35995418982946
H         1.72033481198994   -0.31455428741119   -1.87492447751913
H         1.34855681946033    1.28092888089262   -1.17461465679658
H         3.78232318620288    0.74501129158059   -0.61705896461481
H         3.69453927551189   -1.64951791696627   -1.03551732104002
H         2.40508572259386   -1.86399325188992    0.14552936548979
H         5.46454680429841   -1.39747067431583    0.62164045653957
H         4.50105320773654   -2.68628216535197    0.93216417896397
H         4.19640830373744   -1.97481693701434    2.97444858672640
H         6.14007153208478   -0.29424871080067    2.70249965871719
H         4.93430978648968    0.44552876629720    3.78973032154136
H         5.30928401508899    0.79672670330101    0.73610574813274
H         3.54994896293952    2.60741418439636    1.14529769375850
H         3.43791304429424    1.95421658472667    2.89016227620795
H         1.60908460031658    1.03979185804350    1.26415822686485
H         2.47893689460119   -0.02781496906519    3.28916278914479
H         0.85770873562911   -1.17164535567955    1.88372502794457
H         1.79050277568326   -2.22581091374247    2.79302331838322
H         5.91087898295238    2.98966925682099    2.68626449383670
