36
 energy: -51.092642472528 gnorm: 0.119226354849 xtb: 6.4.1 (79825abcba525fcdf90b791dcacef51065a7a4e7)
C         2.04401654457864    0.36122935902605   -1.09519698972710
C         3.21906343356510   -0.06344389022286   -0.19310135257126
C         3.26975369665573   -1.59950168366201   -0.10595859649173
C         4.13556198662381   -2.02271909805462    1.07787555736977
C         3.82958869963486   -1.32705777857069    2.40629585820758
C         4.98476021665276   -0.43867204238606    2.89669634407790
C         5.33416126713138    0.72169365338235    1.94339557890168
C         4.11299265334571    1.59567327600665    1.59137112264115
C         2.97392948028613    0.65439578526309    1.15707926654887
C         2.66423631683978   -0.34834468385953    2.27220446919705
N         1.32751338630530   -0.92335181300934    2.15893174696335
N         6.40416524605938    1.49761778505223    2.57149857265793
C         7.39346172669528    2.05500550525014    1.83086911547856
N         7.44379744474143    1.65172306090329    0.55518222929312
S         8.87471870061914    2.27337134910231   -0.04103034478364
N         9.27872853995431    3.10918824876959    1.34690207782601
N         8.44142510101607    2.83131024950205    2.32962692435927
H         1.10116911262297    0.36294612601567   -0.53718391071162
H         2.00457481230641   -0.19899815626213   -2.03635075406365
H         2.20530074470812    1.38941449372883   -1.43005844408490
H         4.21007323930128    0.12507035231059   -0.62921848699282
H         3.72789625469594   -2.00800673212379   -1.01677708500224
H         2.23889517535176   -1.95794569124290    0.02612305915391
H         5.17492419917242   -1.79226023237700    0.80780611677798
H         4.11685622249545   -3.11572252360601    1.19554539285941
H         3.58176756556040   -2.11000817147513    3.14129935641933
H         5.89609776909628   -1.02453222210067    3.07490269706302
H         4.69337827029844    0.02725778845967    3.85006868629687
H         5.82320301105379    0.26346262727191    1.07526529313062
H         4.31872402898430    2.24052336577277    0.72545923484755
H         3.80986525165846    2.24181448587677    2.43063319574510
H         2.04779932461702    1.20077995146290    0.92670315329724
H         2.60927240340964    0.22082868166250    3.20914535768980
H         0.72171619612659   -0.11237981896708    2.29309765030804
H         1.06599468886280   -1.48497196125374    2.96984807503134
H         6.15258938134265    1.79505620524673    3.51227667930214
