36
 energy: -51.085113728339 gnorm: 0.124715505512 xtb: 6.4.1 (79825abcba525fcdf90b791dcacef51065a7a4e7)
C         0.90445530242853   -0.67187174733710    0.12562591164412
C         2.37823293815252   -0.44737944761228   -0.26481197372267
C         3.26469346781720   -1.69432831101692   -0.09468512028628
C         3.29888178445370   -2.17513171152712    1.35371383184064
C         4.06138898033014   -1.12576391413157    2.16591750638100
C         5.47279757600109   -0.88968706709463    1.60347946612520
C         5.64921944254998    0.45245990388080    0.86535428055047
C         4.45549915156216    1.02362927690780    0.07300854557008
C         3.08870327514156    0.59221359575541    0.63677014044849
C         3.28203474241505    0.18658325667923    2.10066542968280
N         2.14661284966942    0.13723400426997    3.01645680072261
N         6.06264291923129    1.44564874432620    1.85739113221045
C         7.29843306097794    1.99626071949238    1.77038644381657
N         8.22786093510932    1.75334177896188    0.83780846483193
S         9.43522789516011    2.88907995215848    1.04229684951783
N         8.71819274204089    3.65635483604669    2.34049563852633
N         7.62776611138171    2.99681688206146    2.68693584265519
H         0.29399497574335    0.23750875513313    0.09901571772253
H         0.66891196035316   -1.12159409794415    1.09693948279118
H         0.47889435135648   -1.28951878970559   -0.66981073535188
H         2.44058778570837   -0.04101250699928   -1.28403421470236
H         4.26654410461051   -1.38971129508178   -0.42614411902936
H         2.91654672686547   -2.46582351963334   -0.79624477201033
H         3.90327633487626   -3.08877482537376    1.43299865492895
H         2.25559166681005   -2.19348674382645    1.70021261246540
H         4.08328154921168   -1.43966817665966    3.22215686781558
H         5.78488609020381   -1.82307930484548    1.11675011459103
H         6.13926674420670   -0.79393450771853    2.47386050825673
H         6.49571884584881    0.37898608676857    0.17193662367984
H         4.49776185921959    0.69303461048585   -0.97431253742538
H         4.48388518366515    2.12220646626771   -0.00488814914627
H         2.41711828583582    1.46236586148332    0.60308801663946
H         3.89307961189722    0.93444948152099    2.62235291629961
H         1.48656036305812   -0.63750010490440    2.93409142420397
H         1.58163515904553    0.98033242846306    2.90978083842433
H         5.73725756126024    1.24877751455068    2.80194901002448
