36
 energy: -51.090329980967 gnorm: 0.120543294007 xtb: 6.4.1 (79825abcba525fcdf90b791dcacef51065a7a4e7)
C         2.17098662912827    0.04556059638814   -1.25459401496266
C         3.28962616523346   -0.32591164079083   -0.26186390841026
C         3.11235724128187   -1.77453481162858    0.22773138860866
C         3.86485965326635   -2.06631079411872    1.52341931038072
C         3.56936055000679   -1.07353963140204    2.65007389029435
C         4.83180785010668   -0.38275923779456    3.19154629872760
C         5.54586931621413    0.40138791209390    2.07237630952679
C         4.58178942023438    1.33233284771676    1.30889358467974
C         3.24494208769684    0.67370534439245    0.92014344470208
C         2.64649971171595    0.05157841881411    2.18494673151594
N         1.26856661555286   -0.42965751137848    2.18283047817479
N         6.69146305770241    1.14436222875296    2.59876426096536
C         7.52789123344077    1.88788106646856    1.83359222612381
N         7.37304649683333    1.72229147740854    0.51406554848322
S         8.55122129442894    2.67796875681486   -0.18453072723405
N         9.14296147739486    3.29846354731331    1.24829864910139
N         8.52752560794463    2.75354846001932    2.28190766394394
H         1.24513979726374    0.36331346090875   -0.76247250028240
H         2.03721378974373   -0.92083220211081   -1.75396433724425
H         2.38396283646884    0.77056911713900   -2.04472896199306
H         4.33532153901868   -0.37679723419359   -0.59618121291521
H         3.49448176304281   -2.43646429086694   -0.56105978602977
H         2.05954347136240   -2.05095972337004    0.38190466839312
H         4.91983111083640   -2.16144821116226    1.23306315132219
H         3.55263494931414   -3.07395925874808    1.83327879584020
H         3.11550520763531   -1.62811711274657    3.48740054970570
H         5.58396095305129   -1.04447296471681    3.64090856820857
H         4.47851638168297    0.24153938260192    4.02602172718821
H         5.84171106463137   -0.34447251464679    1.32474165234870
H         5.09620839665368    1.76588070461353    0.43977344953185
H         4.38264219982371    2.18650058816063    1.97558945414016
H         2.55995038685314    1.50647307063377    0.70424955940775
H         2.70489666267986    0.83825893974044    2.94820366421088
H         1.05286229333368   -1.08226169065642    1.42768431509275
H         0.68253762355355    0.39877286552246    2.07481359412325
H         6.91391709871397    1.19691316520583    3.59102233082698
