36
 energy: -51.097018808718 gnorm: 0.123722191614 xtb: 6.4.1 (79825abcba525fcdf90b791dcacef51065a7a4e7)
C         1.72327361749578    0.44228720084210   -1.02239582422103
C         2.89006570751748    0.06842354794578   -0.08768663962961
C         3.32085077473727   -1.40755805268892   -0.16211389623417
C         4.32961275239724   -1.84130295570128    0.89829399066588
C         4.11037791909961   -1.15720412177254    2.24966724649474
C         5.10269547688892   -0.05808647085428    2.66365919726877
C         5.09190935409125    1.16067269154073    1.71929604598916
C         3.66625524031016    1.74926112581295    1.70989362510953
C         2.66275890914190    0.64366301151832    1.33210324515795
C         2.76784639301862   -0.44471024879616    2.40415865095785
N         1.74616598426228   -1.48115119341087    2.29347249668644
N         6.07975998088480    2.16721179831224    2.10982173587878
C         7.35283743004359    2.06272650288209    1.65564417511300
N         7.64630349355152    1.36464713774712    0.55151088024176
S         9.26162023881836    1.68609068373595    0.27424289704804
N         9.43800448088818    2.74635219720590    1.55209436543126
N         8.34560654151838    2.81098870779176    2.29137119368342
H         0.77256908552100    0.04127408860167   -0.65403160978673
H         1.88184224161007   -0.03137533568138   -1.99793706677553
H         1.69858398979777    1.53156532495991   -1.11280070538616
H         3.73831232647534    0.58001666199816   -0.56369752740858
H         3.57459287217101   -1.61548086626465   -1.21032395954079
H         2.42046573516984   -2.02779906417067   -0.04720166215984
H         5.38926457944085   -1.75495106621128    0.62260586676819
H         4.14136274738546   -2.91692344043539    1.02657139139654
H         4.07812260467578   -1.99764377118242    2.96190145594699
H         6.16030055288954   -0.35167062124076    2.69204308033472
H         4.86933049368285    0.17493010037887    3.71349581499311
H         5.38455550654276    0.79167562962139    0.72884811878241
H         3.49121134819585    2.56291579190547    0.99205927273445
H         3.44726056840388    2.17861086138857    2.70057301945945
H         1.62350104284009    1.00285229387599    1.34797831432358
H         2.79433956804893    0.08136272442188    3.36716587636958
H         0.79337884687215   -1.11652313427210    2.33716855465763
H         1.78368133118015   -2.10188537931667    3.10259311982882
H         5.92626044947704    2.80049098340805    2.89226588872327
