36
 energy: -51.099783938091 gnorm: 0.121728447365 xtb: 6.4.1 (79825abcba525fcdf90b791dcacef51065a7a4e7)
C         2.21980223099824    0.44333635353426   -1.12991658136693
C         3.20895627724932   -0.06890041378877   -0.06500023248050
C         3.16678858803917   -1.60760313247021   -0.04910413380695
C         3.92507396105140   -2.06961444337014    1.19256775741137
C         3.71371536114695   -1.27986711994629    2.48635734358668
C         5.00641568401888   -0.60760846877863    2.97741461754005
C         5.48098023480154    0.44019336990385    1.95066645681703
C         4.34975790138976    1.43641062938249    1.62370837099220
C         3.05106759116052    0.68346501956704    1.27939164748386
C         2.60649093942475   -0.22900361095603    2.42597574555495
N         1.31704574171860   -0.76611371810595    2.00273124027126
N         6.57477575978830    1.19864752800603    2.55881019389329
C         7.44878976681890    1.81540933826442    1.72596866527969
N         7.63848230076737    1.50698929676994    0.43699958898706
S         8.85980133953351    2.51847625566886   -0.08714314989703
N         8.99231535898291    3.40623548047310    1.32086744823407
N         8.11429394387902    2.94963436532211    2.19530165092773
H         1.18481882980219    0.14449211501458   -0.93030622308407
H         2.47122709335811   -0.02153065471323   -2.09005465691111
H         2.22280061475590    1.53654888978377   -1.14358436778088
H         4.18617400117890    0.18381386446296   -0.49976132699883
H         3.57925533219104   -1.93525189060601   -1.01288769540304
H         2.11226318124814   -1.91675964690022   -0.08065342263075
H         4.98842570315071   -2.02549320249528    0.92116588207201
H         3.64008331807402   -3.10130285834302    1.44406710764796
H         3.45947999995688   -1.97371278654940    3.30403658376771
H         5.74692220075034   -1.40744616727340    3.10945832664943
H         4.99913951055377   -0.12316932340768    3.96543214211338
H         5.89275229364208    0.00781045912294    1.03073358722902
H         4.64607151794774    2.03669286111664    0.75203187487281
H         4.10829918547869    2.11631462402609    2.45627894450265
H         2.23557127208424    1.41182399764739    1.16198292191056
H         2.58359271618399    0.27192952356612    3.40238714520817
H         0.64267136713905   -0.01996358390357    1.82625044032650
H         0.92996240389820   -1.42864221015511    2.67549939900542
H         6.24659119683969    1.78779940747674    3.32171153693803
