36
 energy: -51.090877191945 gnorm: 0.124417893545 xtb: 6.4.1 (79825abcba525fcdf90b791dcacef51065a7a4e7)
C         2.04173243927975    0.41373413794540   -1.19766050457169
C         3.05651708079989    0.06034531114078   -0.09303944537853
C         3.32910907164705   -1.45446032845126   -0.06668519046847
C         4.20486794821773   -1.96232445332485    1.07582119237550
C         3.89731176683362   -1.26231527139007    2.40158939368688
C         5.00092411464300   -0.31215534731477    2.89492409601263
C         5.17671156080799    0.91708101738878    1.98092803157205
C         3.82181584742314    1.62245502514806    1.76710663118454
C         2.70750360289757    0.67485848603821    1.28497924473653
C         2.61841580869667   -0.42872040950340    2.34284488070596
N         1.41763911634629   -1.20107235676173    2.03969470790832
N         6.25449211155351    1.79234187550791    2.44329983557849
C         7.32983624491685    2.03275809579652    1.65351782990496
N         7.74900744551489    1.34183585500165    0.58605852013917
S         9.19242772320299    1.98950684804621    0.05079051259908
N         9.29841916809041    3.13475898948817    1.26130015455183
N         8.27012671495022    2.97525706986127    2.07445150241614
H         1.01166094272627    0.17080770736710   -0.91431916563344
H         2.21423920736514   -0.11028620196791   -2.14466898215648
H         2.00808744638930    1.46125550827425   -1.50891037446445
H         3.97741566123428    0.57816773238418   -0.39576379299953
H         3.69756734050486   -1.70802625654290   -1.06983232727797
H         2.37009018519564   -1.97629527164755    0.06203188247330
H         5.26487025794859   -1.86915345475711    0.80372391968420
H         4.01020993187577   -3.02663340347313    1.27128821660203
H         3.79985825392591   -2.07253404627733    3.14233577878229
H         5.94892723728845   -0.86369435318362    2.94611625423249
H         4.76910544853585    0.08399554306673    3.89504283315343
H         5.63509254753009    0.58169971015821    1.04274149043430
H         3.93662906869006    2.46762453911829    1.07394943642841
H         3.49610207065094    2.10004290496439    2.70495838929440
H         1.71953403041134    1.15225317583903    1.35802991772413
H         2.65634198351375   -0.00797366734118    3.35594479747361
H         0.60770664673716   -0.58066939147023    2.08183579571563
H         1.39084658993317   -1.76348536011764    2.89079300054132
H         6.44207164977737    2.01182770220844    3.41975432663432
