36
 energy: -51.083404831276 gnorm: 0.131904731135 xtb: 6.4.1 (79825abcba525fcdf90b791dcacef51065a7a4e7)
C         2.06122317750147    0.32669371124630   -1.14716736234223
C         3.17284342981617    0.00578375099928   -0.12923990526397
C         3.37205816269659   -1.51360881987843    0.01703588526493
C         4.21593010440285   -1.95383186138968    1.21046962927196
C         3.86162527036003   -1.18805828499245    2.48731094700600
C         5.03176290414057   -0.34324571475375    3.01760591012627
C         5.26583519771841    0.83378411648885    2.04955479938361
C         3.99460144041605    1.65123517105714    1.74173516999767
C         2.88726890505092    0.71912661158899    1.21536461890569
C         2.59759627969986   -0.36007283675370    2.26241804135227
N         1.41847872913884   -1.11366023528950    1.84759283696729
N         6.32413205299163    1.67028659764920    2.61678626823748
C         7.34559925340123    2.06689872349830    1.81852302313372
N         7.33458251615871    1.88495090937512    0.49212900318047
S         8.80006530952952    2.33164265148074   -0.17291110009976
N         9.51405924873638    2.61675919814502    1.30934780498937
N         8.61308525981644    2.45119668110192    2.26059765771602
H         1.09048339357375   -0.03067331438628   -0.78620212313113
H         2.26334470939573   -0.13981179197765   -2.11809497532513
H         2.10454735824041    1.39925344358445   -1.35464770501635
H         4.07888463814708    0.49555894195129   -0.51270542682660
H         3.81157669879036   -1.94059683031694   -0.89448262328197
H         2.40173150803479   -2.02056301930077    0.11733834963744
H         5.26258436862037   -1.75129273754957    0.94624367485596
H         4.17599692620317   -3.04752321139748    1.31581267701755
H         3.82087233624369   -1.96864478879770    3.26427986235885
H         5.82299837196765   -1.10404736241679    3.04316151949994
H         4.80403547491221   -0.04759912567134    4.05280935975465
H         5.55673804191842    0.52053952190251    1.03958397276646
H         4.33630273859288    2.41285244484890    1.02679475560405
H         3.38141303247917    2.08543636220154    2.54747385839545
H         1.96790116416268    1.31716545528922    1.13512509254209
H         2.49136006966539    0.16333578395662    3.22137313399847
H         0.66680127962665   -0.48715340673229    1.55581123465037
H         0.95692615837922   -1.51213482332223    2.66587258246128
H         6.48900221167156    1.58045367252565    3.61757164550675
