36
 energy: -51.086792889502 gnorm: 0.124315882480 xtb: 6.4.1 (79825abcba525fcdf90b791dcacef51065a7a4e7)
C         1.32491886125347    0.33553109962587   -0.90293882863595
C         2.52627117299902   -0.11552160021799   -0.04961395179878
C         2.69507313475145   -1.64465186151827    0.00427147604320
C         3.99664599745982   -1.88713915586392    0.76407963615045
C         4.22406275937396   -1.22103550107291    2.12306918671258
C         5.33970378707707   -0.16334384795466    2.15094050560590
C         5.15666816277590    1.16726327900474    1.39377809309765
C         3.69328478529560    1.65369464135198    1.42391614378609
C         2.65116543690945    0.52166024970164    1.35636370724086
C         2.95602961471903   -0.45484735718114    2.49583444446285
N         1.91715023821467   -1.39376874303598    2.90747574014580
N         6.07925106222170    2.23405371774040    1.78400799957729
C         7.38913383937692    2.31208825428526    1.44336364840031
N         8.06482437902415    1.19517737495705    1.14587416138006
S         9.69093966187713    1.57480860846963    1.11299678736414
N         9.45716786969782    3.21508099247257    1.32042755042300
N         8.18690555287651    3.44772460456013    1.59674620261951
H         1.33960528893263    1.42419632886441   -1.02514843135319
H         0.35900106827016   -0.03177615787619   -0.53787833709673
H         1.51529885778106   -0.16863907131029   -1.85418926039687
H         3.39667782266337    0.21864950777002   -0.63147152897622
H         2.83343748967676   -2.06603215378299   -1.00054458622244
H         1.73924777982964   -2.05697552435032    0.35780240969301
H         4.81835287793693   -1.75114173362476    0.04810115957738
H         4.02641872915313   -2.96140995615631    0.99626164169115
H         4.50565391528896   -1.99178887115810    2.85880185942336
H         6.27492189907013   -0.58279914654061    1.75730333182818
H         5.44189675901840    0.09433508612758    3.21586826154718
H         5.39071579221823    0.95239487541829    0.34409189986977
H         3.64745823326127    2.34913933824041    0.57408254713688
H         3.52815782885978    2.31886479241575    2.28648636706642
H         1.70783143182328    1.03043958783704    1.60251518935395
H         3.18928958597194    0.08226479570849    3.42424061449336
H         1.69667377688747   -2.04669258833470    2.15398591991212
H         1.08020466164342   -0.82184740377807    3.02504539448423
H         5.66216262057924    3.06006428105137    2.20894020495853
