36
 energy: -51.095836337078 gnorm: 0.123397257624 xtb: 6.4.1 (79825abcba525fcdf90b791dcacef51065a7a4e7)
C         1.39766643655054    0.36423917960953   -0.83531981895413
C         2.72409384263837    0.07224263529721   -0.10718010828240
C         3.09012051706397   -1.42251086015517   -0.14423894317571
C         4.33884311454440   -1.67674656662585    0.69615165219059
C         4.23824805483305   -1.16301660861823    2.13428480974829
C         5.17397614225353    0.00165705084278    2.49772847573457
C         5.04517406666371    1.20280597127794    1.53962447133741
C         3.61321791789304    1.76572302357598    1.64751500572587
C         2.65701745715279    0.59590180310897    1.34872304248474
C         2.85253433437247   -0.55393208777830    2.34097184762888
N         1.75616873017089   -1.51429878838306    2.26370369978081
N         6.03647017372653    2.20931031934580    1.92141126122165
C         7.32910516159463    2.08057968699492    1.53354041595502
N         7.90771654646517    1.10504349020556    0.82214361381959
S         9.54461669659958    1.43240171880529    0.76879432078518
N         9.38746207837288    2.93861205942621    1.47221672962370
N         8.14733465040638    3.16152892010938    1.86773334362459
H         0.57218196565814   -0.28997558847835   -0.53378832015704
H         1.55024405781504    0.19139659241893   -1.90677977459015
H         1.17467003786972    1.43026557419845   -0.73956081949019
H         3.48082161334811    0.67814603653342   -0.62494487781056
H         3.23831008421065   -1.78926973176026   -1.16887989143580
H         2.23921835451312   -1.98323214854598    0.26825845904782
H         5.18716359141322   -1.15057268742544    0.23809487044051
H         4.61977916804328   -2.73965520760795    0.70851031802273
H         4.41311582094480   -1.91373783985344    2.92200028471428
H         6.21369009211928   -0.33803267911000    2.59328774702607
H         4.90117688603829    0.32845939348360    3.51246669942681
H         5.45902762180839    0.94212648648112    0.55801399271577
H         3.44113239293294    2.66261724802676    1.03601868662169
H         3.49329133938282    2.05967421978919    2.70248222650567
H         1.71088473922468    1.14511066339236    1.46065329518576
H         2.95801426045701   -0.06443240006536    3.31775310216084
H         0.90642597585371   -1.08104262039293    2.62824812937443
H         1.93077307388820   -2.23998032553616    2.95961615393825
H         5.95986177853086    2.84774827092196    2.71093745237440
