36
 energy: -51.094464898616 gnorm: 0.128784288065 xtb: 6.4.1 (79825abcba525fcdf90b791dcacef51065a7a4e7)
C         2.20772060251921    0.46027421443923   -1.16088016457446
C         3.28566987206318   -0.08618020964348   -0.20470445704815
C         3.22686207369780   -1.61311804766775   -0.01858806815570
C         3.91088663554764   -2.09062714335286    1.25980767426700
C         3.67798313442302   -1.28588535961533    2.54059312413023
C         4.91891548863614   -0.57154484329139    3.10090335988076
C         5.44218032561802    0.37990071881112    2.00625400474472
C         4.37092042262534    1.39799801482285    1.56478547149441
C         3.08696774791624    0.66349931551250    1.13576939780307
C         2.64047328268594   -0.18443428506266    2.33015365293515
N         1.31033151142191   -0.74187416646399    2.10593119362713
N         6.67309230524849    1.00910626594779    2.48629171388848
C         7.38812142024831    1.82709152656286    1.67539463053032
N         7.62426549917129    1.56998048700485    0.38284778872078
S         8.73216347659162    2.70682290775213   -0.13638534632697
N         9.01494293732273    3.37740546563302    1.36645365384247
N         8.25930050331928    2.75358990558442    2.25183493567266
H         1.21008309983876    0.53356930664928   -0.71401323490958
H         2.27178197970709   -0.09369414567349   -2.10438221268245
H         2.59306272703709    1.44007876966071   -1.45550523142734
H         4.20750694286268    0.30535149993046   -0.65720364125060
H         3.62856862975369   -2.13036484549716   -0.90031867152292
H         2.14790563596572   -1.81026869103003    0.05612185049614
H         4.99503505626892   -2.19630915562977    1.11918020773913
H         3.46984174239139   -3.09130465400082    1.37372205828141
H         3.21611488638027   -1.98067526702911    3.26073301133458
H         5.55720698605996   -1.42626907832639    3.36081915345012
H         4.62553535752924   -0.09405688354147    4.04792299511944
H         5.78084503652043   -0.20053592625387    1.13954344497003
H         4.77001316332154    1.94786205281380    0.70087867879219
H         4.11863079631360    2.11468050509232    2.36257094060858
H         2.41065599958297    1.52106051406616    1.00725071514299
H         2.67237024450150    0.47966754441597    3.20353151340753
H         0.68817487987760    0.06529474205892    2.16969460818395
H         1.07584525925831   -1.36528550750667    2.87908642008716
H         6.66558348893438    1.33891444502649    3.44961599357395
