36
 energy: -51.088786391794 gnorm: 0.122888926375 xtb: 6.4.1 (79825abcba525fcdf90b791dcacef51065a7a4e7)
C         1.50487782923570   -0.64597027780150   -0.70557173018161
C         2.76434961959839    0.07462562052086   -0.18660013985353
C         3.85925248709478   -1.00085625075043   -0.30561036788728
C         3.93117665318197   -1.82653359921461    0.97629609291353
C         3.92439109639202   -1.03615970031928    2.28684100369850
C         5.07370544202466   -0.04454977924770    2.53164595893799
C         5.09293710788150    1.21948209349364    1.64894236966559
C         3.68074986075884    1.83357254115955    1.56156640914320
C         2.65128445357046    0.74496968211939    1.20488373434667
C         2.63749759745238   -0.21986038538485    2.39392347406724
N         1.45352013832081   -1.03795954139163    2.63724080229253
N         6.16174318293150    2.11745814379228    2.08800132957665
C         7.43314777919414    2.07681428889490    1.61917400131189
N         7.85444685362653    1.29715972236898    0.61558378882018
S         9.49221772763899    1.56644966364493    0.42946242037745
N         9.56774493300311    2.77307144395589    1.58121316306635
N         8.37513461219869    2.98443097860726    2.10756773286716
H         0.58493638863594   -0.05095254227190   -0.70345580449543
H         1.22578383956830   -1.50790189470639   -0.08883728685622
H         1.74014274051101   -0.95290354630189   -1.72819182567235
H         3.00213995438071    0.93958593873335   -0.82152978562895
H         4.84016327433642   -0.52699377850474   -0.44571642666719
H         3.64894633327932   -1.53507246924145   -1.24315041581128
H         4.83492000481047   -2.44500591956027    0.89225699815744
H         3.07463396777843   -2.51032818206471    1.06354408125806
H         4.16175954031737   -1.81318092672554    3.03152285555292
H         6.03293030362825   -0.55561831405255    2.37601036229306
H         4.97671250597929    0.25470421576861    3.58613745372064
H         5.35503273590567    0.83228644659380    0.65688736051709
H         3.72434137543633    2.69324764913414    0.87817855776025
H         3.36584386727717    2.22760974634332    2.54101240075370
H         1.74222775368272    1.32239296018086    0.98234340012481
H         2.67066016576856    0.25188631447956    3.38447530003275
H         1.32599735266787   -1.66624165158362    1.84246672267377
H         0.55924354220145   -0.55116134027443    2.70573464300232
H         6.10170966143406    2.66990946674322    2.94124045905918
