36
 energy: -51.090760729311 gnorm: 0.123979894371 xtb: 6.4.1 (79825abcba525fcdf90b791dcacef51065a7a4e7)
C         2.25897936447453    0.48516207952977   -1.18211084278962
C         3.23255455224300    0.08973988662783   -0.05487894291991
C         3.26674299706739   -1.44890634285980   -0.02269410310350
C         4.02169134889215   -1.91228757354511    1.22049981829798
C         3.66609716619106   -1.20630216731259    2.53099676389610
C         4.91362935130011   -0.47680591585578    3.05601275513431
C         5.33958766597543    0.60645636005817    2.04486767320204
C         4.06405095743739    1.45461796478485    1.86419555865687
C         2.84871251279246    0.67661080421002    1.32592517616483
C         2.42476030494508   -0.32491385211378    2.40393976901657
N         1.32944269217055   -1.13829943709702    1.88531142833087
N         6.51832512871054    1.37751619619282    2.44176170744258
C         7.47311932482904    1.91229431524452    1.64157359030043
N         7.82516310586085    1.33792263590670    0.48454731017464
S         9.03993803955388    2.29719882897880   -0.14279846287849
N         9.11677637612186    3.36552669183388    1.13819400402832
N         8.20655752622076    3.03324780749346    2.03548645855326
H         1.45365820122130   -0.25763181690441   -1.17450289858354
H         2.68550872122734    0.38278914116237   -2.18648797329470
H         1.88288883297680    1.50099020277883   -1.03392651284738
H         4.23609720828238    0.49491321770038   -0.24611946179073
H         3.75856641942508   -1.85741135604614   -0.91577566753754
H         2.22018904119730   -1.78197730831269   -0.07153588504589
H         5.11367209075185   -1.90762416500145    1.10269098822207
H         3.73889994172158   -2.97469364090071    1.23372737734829
H         3.50747041444747   -1.99032205957551    3.28915714367733
H         5.71524273027482   -1.21014719589381    3.21460771805813
H         4.68327893265082    0.03526386841357    4.00239328155725
H         5.75094436270649    0.11890977629028    1.15275125377984
H         4.32745527054510    2.34161108831279    1.27104986623712
H         3.69276063190560    1.94065987276923    2.78052098890529
H         2.02266190048745    1.39504647119816    1.22192290827521
H         2.20345630547550    0.27234939922420    3.29788537159926
H         0.42208117528520   -0.67163714951418    1.84546563440722
H         1.24251086189843   -1.91654138785084    2.53966365955991
H         6.52194584331655    1.82116375033613    3.35826988025723
