36
 energy: -51.083587542029 gnorm: 0.125598342795 xtb: 6.4.1 (79825abcba525fcdf90b791dcacef51065a7a4e7)
C         0.80901349039584   -0.92088076427864   -0.11108471111332
C         2.34269409325401   -0.78090570404528   -0.16667330078660
C         3.22668813013449   -2.00837007599393    0.11884886726112
C         3.56791176662771   -2.09642135550853    1.60411445205038
C         4.28977424762164   -0.83344769380371    2.07959014831010
C         5.56344880543054   -0.39376969477812    1.33892848634465
C         5.46101835951711    0.93244919458491    0.55920824431864
C         4.06191611523886    1.19135256279147   -0.03618789789833
C         2.87847071407531    0.44710454443070    0.61005492711112
C         3.25455818553708    0.29002515820630    2.08612644330297
N         2.10242188918152    0.09245111829318    2.96010513369512
N         5.90827232578838    2.11121644044504    1.30214294110306
C         7.21142319158076    2.32283510507531    1.61025988983482
N         8.19388271009273    1.81848525676182    0.85332394491940
S         9.66685610334816    2.35242239935407    1.43186710322447
N         8.95001330638700    3.14670005417771    2.71383031085596
N         7.64119971748854    2.97833031995943    2.76579174772779
H         0.28210338914030   -0.15564642946132   -0.69170940225100
H         0.43924487611292   -0.85880914875184    0.91876929007099
H         0.48872116922275   -1.85874006103587   -0.57275804910824
H         2.52489640804886   -0.47693078120843   -1.20697993030532
H         4.17547861826649   -2.07378042853449   -0.43058673135295
H         2.76284090312577   -2.95678458286531   -0.18766821395092
H         4.15542505540201   -3.00868487424600    1.77419115462727
H         2.61298791498603   -2.13987592329248    2.14733153125261
H         4.58323243311433   -0.93260289057114    3.13727981388202
H         5.92034810942195   -1.18069398429711    0.66150769911072
H         6.40306055330045   -0.18286921278975    2.01825612861731
H         6.13752434611406    0.92714925825468   -0.30398313040551
H         4.12947702431451    0.92306399251500   -1.09986890833642
H         3.82995313519865    2.26482575615835    0.05095617446149
H         2.06686708139167    1.18597952130978    0.67853352619479
H         3.67521485417849    1.23892934573327    2.44315097456827
H         2.27944116447034    0.49345710919781    3.88234409577314
H         1.64144702565965   -0.81040652368593    3.07734340238097
H         5.27881220518271    2.41402728971658    2.04302692633834
