36
 energy: -51.092910559883 gnorm: 0.113329492936 xtb: 6.4.1 (79825abcba525fcdf90b791dcacef51065a7a4e7)
C         1.09467268182371   -0.58671154054205   -0.38488961920184
C         2.56687511782936   -0.15360262254886   -0.24383735421212
C         3.44395368610037   -1.41865993994980   -0.24355897663884
C         3.47706403136806   -2.10169022424204    1.12120240396612
C         3.80650001417482   -1.14634449171701    2.27057236151721
C         5.19411462920590   -0.48487312960142    2.23704016816926
C         5.41818431015216    0.66450610286116    1.23402862472094
C         4.14128640745640    1.47799896010978    0.93945175652870
C         2.79328236045942    0.73580651435291    1.00358531303597
C         2.74645938579575   -0.04729668912087    2.31867447923703
N         1.55257375433575   -0.78149199883519    2.72596609346569
N         6.28733529438724    1.62407606004267    1.91614461570073
C         7.53542143774364    2.08618975442922    1.65797311032523
N         8.14581105384420    1.88313139739925    0.48377581733853
S         9.66017192201538    2.58149666921177    0.57569306097833
N         9.50551357223515    3.06033750842476    2.16784961663736
N         8.30749637817943    2.73882916383736    2.62109187796703
H         0.39688645520951    0.03054497595848    0.19167919300509
H         0.88258271942346   -1.59305859680544   -0.00612270482341
H         0.67976313293037   -0.56335655863590   -1.39613343911016
H         2.85764083450396    0.40414581609308   -1.14506329146109
H         4.46547106755686   -1.19995167555401   -0.58272004642757
H         2.96822201547107   -2.11401244987614   -0.94978927338503
H         4.23261009344408   -2.87803469180892    0.94019959471428
H         2.50861081006678   -2.55633834364749    1.37467041920612
H         3.77856339349514   -1.70040821414466    3.22287994163398
H         5.95805134422037   -1.26793329910300    2.14353478253790
H         5.28260982461951   -0.05637180592372    3.24672729544813
H         5.95717869786027    0.46437774725003    0.30010068858761
H         4.32790085710367    2.00881842924439   -0.00467015363396
H         4.12782263757335    2.31377897661857    1.65711186147107
H         1.94598550786491    1.43564686451676    0.96312042974998
H         3.00342104495490    0.70832083188550    3.07223300406507
H         1.09739111497785   -1.21347697619758    1.92044511870158
H         0.90823903326895   -0.13004281025624    3.17523353739415
H         5.89825079501577    1.93502345999701    2.80425973490736
