36
 energy: -51.088314588265 gnorm: 0.125159404411 xtb: 6.4.1 (79825abcba525fcdf90b791dcacef51065a7a4e7)
C         2.78412472638500    0.52566519234176   -1.35664973392149
C         3.47250695328909   -0.05792432691419   -0.10748513398545
C         3.12745084740222   -1.54605552102900    0.08235335045256
C         3.63094821393503   -2.17361223045058    1.37960551798044
C         3.62214154102555   -1.23882828278676    2.59136711207454
C         5.03513784342108   -0.79909737846236    3.00876524260983
C         5.58933149473315    0.18368370103973    1.95789763930804
C         4.54039744715707    1.29958738679658    1.77483833626372
C         3.22770269536184    0.73546739754342    1.19979161635874
C         2.67796972482018   -0.05468572883700    2.39073835439517
N         1.31487746672826   -0.49539961399074    2.11137691775940
N         6.76741829717770    0.85717220892881    2.50562464250316
C         7.39389582929611    1.75993496873783    1.71160580525383
N         7.47266607502355    1.53038444492792    0.39492465249676
S         8.40598657768573    2.75124829383613   -0.25918234894448
N         8.64811196794627    3.49899185748197    1.21405392155211
N         8.00470724862531    2.91341494591449    2.20761892020650
H         1.75942551664381    0.13793656051585   -1.35573008127407
H         3.25057422405925    0.05996939223615   -2.23228276250558
H         2.97960640134476    1.59958123522783   -1.41829943706597
H         4.55977792032893   -0.00855748371698   -0.25993490304778
H         3.47239852114702   -2.13541213484364   -0.77789728173628
H         2.03508202852304   -1.65764371371356    0.02873085395654
H         4.66680627538522   -2.51807642835359    1.25850611689106
H         2.93212671428763   -2.98022888842488    1.64393607001815
H         3.19963864864147   -1.79138934925745    3.44624974817750
H         5.79815620590269   -1.58166397878103    3.11325572501711
H         4.95618585642676   -0.28683463432376    3.97946927354804
H         5.95054842141009   -0.31435981210694    1.05000850968379
H         4.85879335751170    2.17223112909692    1.18740548061478
H         4.36764951774209    1.67490533703248    2.79613168771557
H         2.55815368380038    1.57232770566167    0.95342851537810
H         2.64359003795025    0.56150243052961    3.29846502801923
H         0.69319849132749    0.30774390176396    2.00582112669467
H         0.87585871502869   -1.35621583274619    2.43948125860117
H         6.68529526610257    1.15718950702072    3.47519615706902
