36
 energy: -51.091657773465 gnorm: 0.116206161827 xtb: 6.4.1 (79825abcba525fcdf90b791dcacef51065a7a4e7)
C         1.17606865700239   -0.13230592025851   -0.17648191898254
C         2.71553402878636   -0.08381603259005   -0.22702059818190
C         3.29409666480197   -1.50646875300454   -0.33171722344551
C         3.15769457194867   -2.19352053979878    1.02458457479249
C         3.74922198187325   -1.36563251625491    2.16780875305940
C         5.27544706175793   -1.18124269928771    2.13987271248869
C         5.90831051050456   -0.04692369901748    1.30914039181744
C         4.83490669091269    0.91715934267035    0.76383089704890
C         3.32524997947193    0.69032026814624    0.96768921960019
C         3.09550449070229    0.00688796794356    2.31862954118542
N         1.75676802967192   -0.07075982047972    2.89486522890478
N         6.79831776683189    0.72313272432321    2.17884165923044
C         7.53025223490270    1.77966806556224    1.74765076704042
N         7.91591968196737    2.03743912972364    0.49171998523543
S         8.88383924754771    3.39850033590153    0.50150602526787
N         8.69056673340765    3.67543739556260    2.13678026847041
N         7.88392347579288    2.77229462176736    2.66375383499709
H         0.78638662514714    0.79528383509878   -0.61014996894269
H         0.72999594873132   -0.17576178273291    0.82367389025641
H         0.81035207060560   -0.96906287893337   -0.77764630554563
H         2.95417030046291    0.50809850539101   -1.12174184274532
H         4.33085996784068   -1.46283490929946   -0.69168836508422
H         2.72133468164149   -2.07356868187305   -1.07933901008010
H         3.59029087681611   -3.20262666899296    1.05438120279087
H         2.09811002578469   -2.31809209909613    1.29031958389629
H         3.50077560231917   -1.88689427009015    3.10654052801345
H         5.70119219073705   -2.12480093212214    1.77386079581292
H         5.61261556901410   -1.00380242394309    3.17222207177730
H         6.43506880109746   -0.47669529877477    0.44855353773868
H         4.89873924576788    1.14832968228117   -0.30875760538300
H         5.02686097751495    1.93660105525066    1.13482638253383
H         2.79253813134354    1.64984085983941    0.89794564974619
H         3.61722112891901    0.55056520406831    3.11679266058800
H         1.20295614529335   -0.81564904861894    2.46930827617980
H         1.32390771372037    0.83840866872615    2.72921766933430
H         6.46627451840791    0.84506577110017    3.13367310581025
