36
 energy: -51.089215529841 gnorm: 0.130924584897 xtb: 6.4.1 (79825abcba525fcdf90b791dcacef51065a7a4e7)
C         1.53094555238743    0.09522481607210   -0.92980843918741
C         2.86572977925213    0.15489783033751   -0.16192218252169
C         3.52597944978988   -1.23503607728159   -0.11960171443010
C         4.51159704930586   -1.58448390734144    0.99244345355016
C         4.08409225880727   -1.05078482156091    2.36162926840985
C         5.04807675374068    0.04180709464010    2.85266891422386
C         5.07378302228877    1.11302895766019    1.74400532526593
C         3.65103156746087    1.70691979588422    1.78968272513494
C         2.64542368743622    0.65401611575825    1.28746332622092
C         2.67367777264127   -0.46442425972124    2.33302317653148
N         1.65479224170354   -1.47444849798086    2.06466624164376
N         6.06178940952940    2.15395962689422    2.02998942141907
C         7.31333653886282    2.07683596573181    1.51462318828613
N         7.77887268837592    1.20502833795116    0.61142054403416
S         9.36701110829751    1.59287864456228    0.26960163512416
N         9.47610732831068    2.63190245804605    1.57217515837194
N         8.28733576792250    2.90236894340456    2.07982801418658
H         0.81952767664179   -0.63341678594188   -0.52569354579000
H         1.80242508942254   -0.09897583601783   -1.97372696963491
H         0.94894221146807    0.99634099429174   -0.71868950879287
H         3.48553140475379    0.91638498994811   -0.65570297450399
H         4.07274085426728   -1.34513127716996   -1.06580059239102
H         2.69959282886232   -1.95929032830859   -0.15333451114109
H         5.49899744413520   -1.16095365553312    0.76444083557968
H         4.57620675904836   -2.68205994016789    0.99020046649451
H         4.13452980907574   -1.83789766822540    3.13141249632124
H         5.97394367572400   -0.45441343731737    3.17213946024263
H         4.55127912008333    0.49270637816622    3.72490445449950
H         5.27509299158116    0.65328886854399    0.76886376347819
H         3.66211505189088    2.56118096062616    1.09825270194151
H         3.49973316944533    2.01861160687406    2.83548507450680
H         1.71284278261643    1.23348148480750    1.34942005821314
H         2.44638362956034   -0.00415752483111    3.30324454164324
H         0.71168369138615   -1.08372999941019    2.04117971918238
H         1.66718537593366   -2.16553197160971    2.81542889412872
H         5.85932880021075    2.92459459801066    2.66398858175359
