36
 energy: -51.088236697640 gnorm: 0.138860870087 xtb: 6.4.1 (79825abcba525fcdf90b791dcacef51065a7a4e7)
C         1.30540264461172    0.23697943582528   -0.78223372620865
C         2.66080826902154    0.05294028734279   -0.07239974311358
C         2.96734535023156   -1.45530127528730   -0.10205303384282
C         4.22703728507188   -1.81766960943126    0.68029325003148
C         4.22501860964988   -1.19106922205992    2.07658573888453
C         5.36043232318364   -0.15638157187934    2.14292035256406
C         5.07198358083137    1.06416741543581    1.24605385048785
C         3.68460391462939    1.71158968217961    1.43323428035035
C         2.62058779758367    0.59952995052565    1.37604570671244
C         2.95087891049884   -0.43717396603924    2.45356846433105
N         1.90054031635969   -1.30476865791526    2.97736268595425
N         5.96292534422395    2.16415023106905    1.61718827625255
C         7.31029380312439    2.11574604217568    1.47514640413182
N         8.05871920877380    1.00977998714891    1.37899051035953
S         9.62804096004049    1.52878609055116    1.13958797142911
N         9.32622753057113    3.15947589583981    1.33434336924586
N         8.03024764542849    3.31043673911355    1.53852054849475
H         1.12627378765257    1.31533628137791   -0.85573333146631
H         0.49501140802741   -0.03653336352634   -0.09693253647348
H         1.20533378782657   -0.33253456603421   -1.71010736051382
H         3.40056053438933    0.51406335527450   -0.74170409258180
H         3.09163675205999   -1.82900271984923   -1.12736282866410
H         2.09465360499921   -1.96700807665576    0.32825177998791
H         5.14550755540027   -1.60673826472327    0.11616300874197
H         4.32374105990574   -2.88152582132684    0.94050649417495
H         4.50131427631246   -1.90601036101834    2.86853059656598
H         6.28912339670774   -0.53835207816925    1.69889644575170
H         5.51046028865973    0.23172169580292    3.16163539669188
H         5.23562227491131    0.85435363223159    0.18210447904322
H         3.57012065776312    2.56684665401495    0.75250706584496
H         3.64034023370576    2.16277114556769    2.43733664173105
H         1.63379303477789    1.07392472056247    1.47857168103734
H         3.18639511070080    0.20271545340555    3.31374939624994
H         1.78007279040056   -2.15207762005019    2.42038747063225
H         1.07338435836825   -0.71164367499794    3.05091735689127
H         5.55235877323414    3.05807876067521    1.88015285420535
