36
 energy: -51.090567018202 gnorm: 0.135342024279 xtb: 6.4.1 (79825abcba525fcdf90b791dcacef51065a7a4e7)
C         1.14929023435557    0.17241312034680   -0.71191679485853
C         2.52980820679007   -0.00662120579636   -0.05087508866115
C         3.00897893386646   -1.46855668004464   -0.10357483369724
C         4.27928868370020   -1.72557311804214    0.70293382478746
C         4.32057204852862   -1.06201152598463    2.08142823205916
C         5.32598694816799    0.09269722494577    2.22260883573109
C         5.03786197335445    1.20405933110420    1.19344873851170
C         3.60498122073570    1.71267102191135    1.45264276100496
C         2.54731421686529    0.59575414842551    1.37573276713080
C         2.95209677242477   -0.46437074861304    2.40392980838838
N         1.84064551782273   -1.41039820333570    2.40323593877701
N         6.02954894733408    2.27062465319213    1.33654209808787
C         7.38237113485572    2.21722529758794    1.40683718266020
N         8.03034437544907    1.08621364839663    1.10107440331571
S         9.66964104635555    1.37181099569684    1.24457447407908
N         9.50663528643696    2.93237309159451    1.81575336539347
N         8.23131416345004    3.26981401851646    1.75467116946653
H         0.92880503408929    1.24469929636453   -0.66796796506728
H         0.32943125618683   -0.33324725550858   -0.18911681415690
H         1.19866668019761   -0.09088836083290   -1.77189028550697
H         3.23012736411657    0.67441560586830   -0.55444064834245
H         3.01328462005326   -1.84914744575992   -1.13386291748766
H         2.17151831321415   -2.07193883266020    0.27482540013236
H         5.09405951542999   -1.42986636318076    0.02837566795711
H         4.39737325831853   -2.81177318130760    0.82572693254644
H         4.61165014956312   -1.78489318530864    2.86076935288498
H         6.33503890564273   -0.28506515675550    2.01133739082770
H         5.40361841087148    0.52188515843385    3.23289792880101
H         5.21209660187671    0.77245775781719    0.20039778899839
H         3.35913775661195    2.51574965886400    0.74370959309885
H         3.64953586640930    2.21677977422620    2.43123096756040
H         1.58990383151970    1.03827017717604    1.68697376290769
H         2.92824448797870   -0.05776168181190    3.42321282202881
H         0.90248483040874   -1.02551948951118    2.52319110153763
H         1.89116514995078   -2.14732429842332    3.10735400688896
H         5.75427149180142    3.21232978336477    1.60900738287071
