36
 energy: -51.093034588463 gnorm: 0.120375110147 xtb: 6.4.1 (79825abcba525fcdf90b791dcacef51065a7a4e7)
C         1.15344575611643    0.28555718003807   -0.71137256846320
C         2.49213296469043   -0.01724456618122   -0.01059669977161
C         2.95590739872794   -1.48022067347617   -0.12997497241418
C         4.24077035588868   -1.70908543567752    0.66182579340596
C         4.27431046903733   -0.99016183387262    2.01248815979639
C         5.42647599356570    0.02777667189202    2.03391171725062
C         5.04609115219382    1.24134532916614    1.16220618771269
C         3.63133269712765    1.70750674032701    1.56241426186348
C         2.56298494570275    0.60953094646988    1.40379529883638
C         2.92341547438156   -0.43652233967442    2.46245718921849
N         1.95580637756758   -1.50603370912556    2.68644433734591
N         6.00769013296675    2.31510676868188    1.41487975784789
C         7.35280589754439    2.14756803222587    1.43757198833813
N         8.01465039537229    1.31337800132442    0.62600789418575
S         9.64409662925620    1.50088187528534    0.94096650742642
N         9.44134229856987    2.76860429330202    2.00864660918861
N         8.15513506228314    3.00153831145709    2.19693903729605
H         0.67279150873177    1.16722876171294   -0.27322926383758
H         0.53010346563739   -0.61048303718503   -0.61269501068028
H         1.30265436642818    0.43861616618331   -1.78357553841276
H         3.24694456749363    0.43979747188969   -0.66573658782855
H         3.07879883126239   -1.81684743574030   -1.16821456217556
H         2.23914251103563   -2.19194007694462    0.30396117327732
H         5.10937148903878   -1.47196565963219    0.03283540230624
H         4.37516930170554   -2.77440049033779    0.89824359140297
H         4.50102571957285   -1.74176334941361    2.78602043539080
H         6.36217216582003   -0.48539237014292    1.77573344896930
H         5.50109813323626    0.31718792109837    3.09296108193673
H         5.09966268674053    0.98671200709008    0.09680500647749
H         3.33670857244108    2.52663681145205    0.89145747022579
H         3.75697064487488    2.04385582768237    2.60396596648934
H         1.57136394268160    1.06911120770722    1.52544929952266
H         3.05196697758974    0.06264076526697    3.43155384629158
H         1.05793950468680   -1.03745032870229    2.81656352464570
H         2.14619149489679   -1.99999405049710    3.55888414259482
H         5.72558133349423    2.89409346202667    2.20355746959558
