36
 energy: -51.088869540339 gnorm: 0.124878520568 xtb: 6.4.1 (79825abcba525fcdf90b791dcacef51065a7a4e7)
C         2.19428435022338    0.35956374472833   -1.24261099826808
C         3.20712562345395   -0.07371430045874   -0.16498315158772
C         3.05140947821312   -1.59685000687645   -0.00546199677574
C         3.96459762400984   -2.11291021395442    1.10357792394154
C         3.83827353464483   -1.28644094960677    2.38547323202437
C         5.09094540824547   -0.46962480774687    2.74291920672768
C         5.40375777980581    0.73162002651625    1.82833119121763
C         4.10144264423053    1.49741770546939    1.51761654683242
C         2.88122453071406    0.62015256004687    1.18064287787267
C         2.63438614018922   -0.34693586306420    2.34198404433206
N         1.36433350006588   -1.05877127140123    2.23927701408739
N         6.28186525623083    1.69526624533948    2.49300657694683
C         7.40482115231280    2.13665386101834    1.87489037513311
N         7.40526964396578    1.91392565557293    0.55468606685237
S         8.87634062143019    2.43515693194976   -0.04005741421922
N         9.45412425950304    2.92168944184836    1.44911095596400
N         8.57502493110881    2.68333508766640    2.40536036275621
H         1.27496048548768    0.08359150272646   -0.71438208774945
H         2.20273169613813   -0.13384402332783   -2.22121119122893
H         2.09954647605824    1.42945407110526   -1.44674055220535
H         4.26671510214430    0.15290485851644   -0.34869515524767
H         3.34177909302734   -2.12184228442916   -0.92547824089418
H         2.02174887277472   -1.91652014036176    0.20949613542492
H         5.00820017574352   -2.16380459792431    0.76501321373808
H         3.55665897445961   -3.09920333503000    1.36751829982179
H         3.75723221853591   -2.00925344091678    3.21350172060716
H         5.97574107845934   -1.11838531801323    2.78501676862501
H         4.87725548056490   -0.10424350085517    3.75866818079904
H         5.92334416942118    0.34950929411013    0.94130861137308
H         4.30628425353885    2.26212672688864    0.75523838702728
H         3.80500800899341    2.11735504581770    2.37874936162647
H         1.95374049227155    1.20591381866271    1.10329321791472
H         2.71868345177399    0.31379116354879    3.21443537881406
H         0.73867574750297   -0.25771954852487    2.14163064266510
H         1.17462780318211   -1.51895639463841    3.13013946811422
H         6.40467610813770    1.72154344633713    3.50347700789395
