36
 energy: -51.094474108582 gnorm: 0.129195877583 xtb: 6.4.1 (79825abcba525fcdf90b791dcacef51065a7a4e7)
C         1.27264678592847    0.24741703183100   -0.73536309123872
C         2.66709815887396    0.11095575189419   -0.09369121947998
C         3.15026124097548   -1.34597243323207   -0.21009827765683
C         4.32371859409477   -1.67847375286587    0.70785650995431
C         4.28065927061943   -1.04009888537958    2.09814002466059
C         5.33206394299313    0.05519444721860    2.34108824372711
C         4.99755428876793    1.23103990390531    1.40151239527511
C         3.56704653786331    1.79828351928736    1.50589951199105
C         2.56515790651280    0.63779735224975    1.35903665974091
C         2.91097543514710   -0.43321821547870    2.39741926421960
N         1.99839963761711   -1.57084826394303    2.45482487616709
N         5.98076756420517    2.28488125743653    1.65487027142374
C         7.32299060400802    2.15113145201501    1.51896991172926
N         7.91580666324558    0.97889204139291    1.26018171173025
S         9.56170172073728    1.26028654975376    1.22415035968992
N         9.41905278255622    2.91861215481457    1.35748346947397
N         8.15993121723236    3.26841568565932    1.54798735584604
H         0.91345108742805    1.27843919698925   -0.64417882558066
H         0.57697186005994   -0.41497952253678   -0.20768124324595
H         1.26582476616484   -0.09761213819204   -1.77277226284429
H         3.39509657008451    0.74873178278358   -0.61436027333731
H         3.24141700033992   -1.75021568761116   -1.22727048954021
H         2.32970336057343   -2.00087600865837    0.11606584699915
H         5.22026782989755   -1.45002910957957    0.11596537997922
H         4.39953949687701   -2.77454302767196    0.74952090366567
H         4.49908606655179   -1.81990331621451    2.84570378323952
H         6.36286752189290   -0.28309549004978    2.17218088467024
H         5.19445398999187    0.53557674268446    3.32150103005536
H         5.14656131628489    0.93072126976418    0.35729338980113
H         3.38813543051569    2.63533520287909    0.81648256126346
H         3.49609297651145    2.18787697089481    2.53396958357041
H         1.54543934434130    1.02585478453293    1.49655524855107
H         2.95254428539396    0.07473394659054    3.36957882672941
H         1.05471513113437   -1.37532508870556    2.11733926736968
H         1.99858953303422   -1.93065112866322    3.40977847580722
H         5.70550852504287    3.22357526462650    1.37218754823602
