36
 energy: -51.087673217230 gnorm: 0.139499779518 xtb: 6.4.1 (79825abcba525fcdf90b791dcacef51065a7a4e7)
C         2.24085074261730    0.58720830445180   -1.18309668306516
C         3.16475056583845   -0.00989748680372   -0.10386880632342
C         3.30522749714517   -1.54269432441811   -0.08296622658132
C         4.10674740249867   -1.91767265281888    1.16088156225677
C         3.80194252226924   -1.26308855835272    2.51028084199685
C         4.95417293413905   -0.39220414447957    3.03760280593755
C         5.36631057690261    0.66693421004206    1.99564288758104
C         4.11337329795002    1.51040613785113    1.68304467626025
C         2.91851945700281    0.62242171180379    1.28822125481460
C         2.55448407398735   -0.39137379888271    2.37661426852467
N         1.39485530452870   -1.18515996226252    1.98233427138539
N         6.38456133973881    1.54753131710129    2.56939740299638
C         7.35299311134194    1.94197373081037    1.70656737173374
N         7.43764208279432    1.58938695256636    0.41774444510117
S         8.89848554527824    2.21328270663163   -0.09814520179522
N         9.29132973560002    3.01204567715894    1.31459023282244
N         8.28922165232427    2.87180712738413    2.16320904560861
H         1.17553441887123    0.47561162318688   -0.95290086631318
H         2.34114869051515    0.05712102475496   -2.13710334276298
H         2.33160401748702    1.65869284666371   -1.38056604998796
H         4.12569850717128    0.37417696838083   -0.47387157869526
H         3.83004929525432   -1.74506214002846   -1.02634876996532
H         2.32147768587734   -2.02980442431948   -0.02332569140424
H         5.11988732500334   -1.56644207259687    0.92316920234807
H         4.07144892752505   -3.01080293972310    1.27345491658100
H         3.56408693763924   -2.02772818792402    3.26751773416599
H         5.79168088713727   -1.04702392312978    3.31204270743161
H         4.77038545432531    0.20300613718125    3.94471896986549
H         5.80413761379958    0.23419802290326    1.08798956736878
H         4.29026994623509    2.26106508706091    0.89998712408411
H         3.85963653357327    2.14649618520911    2.54603517936292
H         2.00441489367259    1.21414219856166    1.13458024217246
H         2.42592862968752    0.11510433220921    3.34190745700747
H         0.63231328219404   -0.54207683650711    2.20060029390578
H         1.31149242728711   -1.87657630672759    2.72824886589698
H         6.12829736517470    2.13667057767701    3.35937662545733
