36
 energy: -51.082006609141 gnorm: 0.127047204343 xtb: 6.4.1 (79825abcba525fcdf90b791dcacef51065a7a4e7)
C         1.30265157246203    0.05511751453713   -0.47390400015970
C         2.81665266443223   -0.17186468683741   -0.29744160147396
C         3.22252467282997   -1.64302409781141   -0.09595974240858
C         3.07452007211954   -2.16819613389370    1.32969426739602
C         3.87794677300819   -1.28018841027435    2.28269624514292
C         5.32879180881316   -1.35198913057894    1.77867586898135
C         5.87970761929935   -0.05847660419935    1.14572311371984
C         4.87584394738969    0.98267215722898    0.60973667446392
C         3.40315178009349    0.62999736704760    0.89058549359972
C         3.30582637566438    0.13532816709422    2.33652216813539
N         2.04147764889415    0.14747486457377    3.06560856845091
N         6.78131894413434    0.52198006323057    2.14153799096494
C         7.43324222660528    1.66002341084210    1.79835588998725
N         7.95879306655170    1.90562337864880    0.59169753488062
S         8.67560206422224    3.41413100375064    0.58527429941062
N         8.25119449133924    3.75757321539262    2.16327807121397
N         7.54646426938368    2.75556592526725    2.65661167635589
H         1.04828065926198    1.03358367423405   -0.05171652824016
H         0.76165164171265   -0.69131242203801    0.11883740792238
H         0.97413858571279    0.00399416985185   -1.51542937446924
H         3.33145729761216    0.32150807260715   -1.13374046424587
H         4.27192888039959   -1.72609025989095   -0.40934794315862
H         2.58353141710123   -2.28920274133989   -0.71461779564599
H         3.49037197453306   -3.16491949436306    1.52952514797568
H         1.99583901242806   -2.20049146883770    1.54006730306708
H         3.78528268090104   -1.75484092552514    3.27303719622402
H         5.48087427569835   -2.19716890513235    1.09452098920663
H         5.94596750281629   -1.59647932998769    2.65630426964547
H         6.54671735974365   -0.40904362237779    0.34886145147275
H         5.03680906542373    1.11851296770835   -0.46896531572455
H         5.17898018712363    1.87676932724125    1.17757841451019
H         2.93760693357184    1.62303432543920    0.81013954234507
H         3.90045126561487    0.81066047717570    2.96515971487154
H         1.21415628024073   -0.33935142318035    2.71746227751483
H         1.74703053389170    1.11022842441879    3.23234492985865
H         6.29354327739142    0.56487304064805    3.03431936873270
