36
 energy: -51.091493123163 gnorm: 0.133599047706 xtb: 6.4.1 (79825abcba525fcdf90b791dcacef51065a7a4e7)
C         1.59553248741125    0.25425113231209   -1.02743818717339
C         2.86889904113205    0.06088746362906   -0.18126607001580
C         3.22335939168756   -1.43490974226112   -0.10011470326154
C         4.39807376369744   -1.66556402617066    0.84700993606962
C         4.11716083105422   -1.04790890680413    2.21881712964894
C         5.24618194544077   -0.07689993945542    2.60169578740413
C         5.08461226942218    1.19145161684258    1.74001625885063
C         3.63821353282915    1.72081764424291    1.65806056480744
C         2.60778258165998    0.66260101197163    1.22163493881641
C         2.73417510158413   -0.40553187671642    2.31159809292396
N         1.70868182458203   -1.44409676384680    2.31781704893126
N         6.09108624804743    2.19049148893747    2.10113899999355
C         7.36208522759893    2.13117228693108    1.63320369388204
N         7.74955259280302    1.14042572887839    0.82028441023796
S         9.31234693857858    1.58992952187839    0.43940142313023
N         9.45171609781531    2.85819943183775    1.51654483316581
N         8.31825751248359    2.98822722685241    2.18168073667651
H         0.71439785861225    0.03924012074433   -0.41285307086699
H         1.58784976046634   -0.37278400067596   -1.92629794035245
H         1.40387479737821    1.29185864823089   -1.31370281929898
H         3.64571184926542    0.59578933845807   -0.74542747075783
H         3.52441253141206   -1.91666068399135   -1.04013829649154
H         2.37796541727782   -1.97469647253703    0.34992562632688
H         5.32413099362039   -1.24390421078230    0.43355663753095
H         4.47883850438403   -2.75696535662557    0.95271142291986
H         4.21528451939633   -1.91105519083236    2.89705532622841
H         6.24644045413454   -0.46986361508040    2.37677740059265
H         5.17261364985139    0.14869129543219    3.67622321317738
H         5.29705311314497    0.78997822985837    0.74177994983573
H         3.58879647743022    2.52879737260365    0.91463123303338
H         3.43892202490819    2.13282000646575    2.66019952421285
H         1.63703160505027    1.17926970459532    1.21695354067311
H         2.52704555634261    0.09334221778887    3.26713961665518
H         0.78966509585384   -1.01224400821809    2.42541702970435
H         1.86491083695356   -2.21340459123237    2.96985422926981
H         5.93276543830147    2.71862987821777    2.95719265300575
