36
 energy: -51.095274786449 gnorm: 0.121968931929 xtb: 6.4.1 (79825abcba525fcdf90b791dcacef51065a7a4e7)
C         2.16587978777021    0.51931675652602   -1.12855378356411
C         3.07204091723777   -0.11940508545747   -0.05814941866777
C         2.91261265523192   -1.64479635097972    0.07376347924474
C         3.94475871971073   -2.08944971856193    1.10679696196438
C         3.73904526104174   -1.30920580380587    2.40724543930143
C         5.04766507209817   -0.59317335283455    2.78001188634599
C         5.41595122890612    0.60192955863662    1.87812145906717
C         4.18959250713522    1.50762785060299    1.64409305786225
C         2.93602816190992    0.70701437384742    1.24450309313867
C         2.61421930211658   -0.27598445085622    2.37368638472218
N         1.31745290504617   -0.91584915175709    2.17553950500454
N         6.52260192192514    1.36505581358100    2.45643168833186
C         7.46460532800881    1.96031879120152    1.68428391226772
N         7.73440692519786    1.55532269285120    0.43699376188865
S         9.06561294039725    2.45029142899336   -0.02816554086878
N         9.16282641286455    3.32143252319419    1.39304274341976
N         8.24346811821178    2.96046763444630    2.26969891186549
H         1.10613698312925    0.59043990650455   -0.85979830831467
H         2.21597290488793   -0.09015439095651   -2.03806822925494
H         2.51432044130266    1.50570452182772   -1.44626078817115
H         4.07745120601194    0.07049142041408   -0.45930485286122
H         3.22927716248733   -2.19582906355061   -0.82203104944530
H         1.92237025029101   -2.07402866306475    0.28299195760665
H         4.92862261236144   -1.94375858766282    0.64084789348418
H         3.90002327130755   -3.16003881431172    1.35315101083245
H         3.58626405747093   -2.01349148136490    3.24108977492648
H         5.82678398488154   -1.36279137656222    2.70135047529379
H         4.84739883168991   -0.20793101538246    3.79114721214211
H         5.76275906324138    0.30112096334585    0.88211633054939
H         4.44746155837977    2.36638915228361    1.00848861457318
H         3.88125131740783    1.95681842787286    2.60164152571310
H         2.12767246695578    1.43787771890948    1.09710663340617
H         2.73508466494884    0.26131335485502    3.32318109961082
H         0.48894469738398   -0.35024881427263    1.98491763002303
H         1.10715986193164   -1.57300138457412    2.92741867822747
H         6.34542440625247    1.67828985976592    3.40896307873226
