36
 energy: -51.082452978674 gnorm: 0.143328620650 xtb: 6.4.1 (79825abcba525fcdf90b791dcacef51065a7a4e7)
C         1.81983078805031   -0.42316118464982   -0.82729370511970
C         3.26052468898204   -0.29292550195687   -0.29597571880000
C         3.61105896828427   -1.69532712185694    0.23320502698043
C         3.34478063886343   -2.06644360011630    1.68976558037067
C         3.51242082571067   -0.91821490173024    2.68762950486206
C         4.93712241568203   -0.50504311747864    3.09217556747209
C         5.67206454550394    0.12878055964615    1.89407724244746
C         4.77008430079930    1.22539450965800    1.29167883217837
C         3.37499427179660    0.76562833838412    0.82862757107407
C         2.75899475118966    0.29718779870156    2.14999449227753
N         1.33589254927415   -0.02680112589072    2.16016244356107
N         6.98644157011646    0.63919541123019    2.28570188309568
C         7.54596020833151    1.66111402895737    1.59249061324295
N         7.53943447821614    1.76529116378015    0.25770523353294
S         8.35331835179385    3.18793555608323   -0.06342970489700
N         8.96050398623911    3.37890467639539    1.48027578989715
N         8.53149741092095    2.39751271916549    2.25284588450326
H         1.30041034835199    0.54091597339894   -0.86046678824155
H         1.11703753371480   -1.02790141824309   -0.24286936899917
H         1.83585765179691   -0.84238035483924   -1.83690148771753
H         3.90117081197388    0.00754047816535   -1.13688529821736
H         4.65236258762846   -1.93947811407158   -0.01667162903139
H         3.18771838590994   -2.46539762883937   -0.42737888825217
H         3.90617644670430   -2.95582135664818    2.00625338901222
H         2.27693825795434   -2.32812072547087    1.68026249316298
H         2.96556471091393   -1.27381615178515    3.57597229714383
H         5.47530594967298   -1.43016010074259    3.33721197360518
H         4.88004823316120    0.17437823831625    3.95591280408031
H         5.86752322884084   -0.67469292225057    1.17365100881823
H         5.32755247764965    1.73393929352191    0.49257192134874
H         4.62159479987499    2.06210291791502    1.99283175352209
H         2.80224467175106    1.67790944846718    0.60720733185136
H         2.92318529395639    1.04617841423413    2.93541927488680
H         1.08975876653139   -0.79213157330928    1.53059611866873
H         0.83881531730154    0.82186754713627    1.88800399463010
H         7.16555546762722    0.67703063667385    3.28735561638557
