36
 energy: -51.093393552622 gnorm: 0.117186740557 xtb: 6.4.1 (79825abcba525fcdf90b791dcacef51065a7a4e7)
C         1.97806691185483    0.33230561281823   -1.22764626391879
C         3.00911674369369   -0.20241972551950   -0.21479674126478
C         3.05511699379849   -1.72289680710125    0.02114888389158
C         3.99443426973809   -2.08325599256964    1.16920141176155
C         3.77622796375156   -1.28525425991725    2.45677435503045
C         4.99364931351051   -0.44725597582140    2.88078762025788
C         5.30388972918950    0.60969592933530    1.80193843580158
C         4.07517206758334    1.43810560919075    1.37414791291368
C         2.83774209027805    0.55571220295450    1.12469528688113
C         2.63171261093213   -0.27525931526498    2.39431757289822
N         1.29392668973997   -0.85866083173664    2.37808102039489
N         6.33510091752039    1.55985600473452    2.22060234143714
C         7.47616032512900    1.92029992951879    1.58343343671933
N         7.77264693790418    1.83768615318405    0.28042994358588
S         9.16281951924260    2.74683456667464    0.10630059898783
N         9.44916148607458    3.01219262839596    1.72980410378938
N         8.44913912549145    2.48363978987607    2.41144076417683
H         0.94083959700058    0.26583046676251   -0.88111578128198
H         1.95720179038218   -0.24201708508537   -2.16086596646035
H         2.33893060899547    1.32732956727786   -1.50153343255026
H         4.01592087084431    0.05627605859160   -0.57152936172586
H         3.35870208478894   -2.24367281595135   -0.89699584369165
H         2.04103153923153   -2.06388568974015    0.27404063708491
H         5.00954011855157   -1.90199113307551    0.79101393110624
H         3.74935697749661   -3.14629606657470    1.30607915258635
H         3.55461223182470   -1.92800897044746    3.32418985006596
H         5.85397035215762   -1.10317141566290    3.06826680055480
H         4.80831143455150   -0.06696034986252    3.89663110240102
H         5.64043519810220    0.06049684200533    0.91429818291290
H         4.39445865082821    1.99385083298477    0.48130762842088
H         3.75401615908238    2.05286464232531    2.23011272316495
H         1.99271878630794    1.24894653105045    1.00350257282029
H         2.79266850287031    0.38240375061330    3.25826785003014
H         0.62323589946940   -0.10859810301365    2.55199498547899
H         1.13573132130595   -1.47223076387116    3.17801894284291
H         6.30599535704359    1.86466948457144    3.19171773195072
