36
 energy: -51.085721650747 gnorm: 0.120318528415 xtb: 6.4.1 (79825abcba525fcdf90b791dcacef51065a7a4e7)
C         0.84520236488284   -0.86157886328283   -0.13023274544285
C         2.34540876727168   -0.53494893249160   -0.26271929973011
C         3.30636492650537   -1.72388596703428   -0.08208472030291
C         3.60587134213182   -2.14579134911691    1.35405315991849
C         4.10544297139443   -0.94907337642866    2.16680100806249
C         5.46981673224764   -0.42775909511758    1.68632344290890
C         5.43415105084477    0.83793270032753    0.80651426943552
C         4.09600581994684    1.30131916107506    0.19524128504373
C         2.82873839128262    0.58240281316701    0.69451089363206
C         3.13203764615421    0.22829685837031    2.15311330547045
N         2.02099035872878   -0.08726990877438    3.04546055333163
N         6.00892654790595    1.87093124023808    1.66908442168239
C         7.33255947834877    2.10874679166747    1.84043269390817
N         8.30210488921929    1.26962005049362    1.45521138124521
S         9.69458328430842    2.18912944863509    1.38479790501426
N         9.00233971331018    3.61576967997907    1.90792957195559
N         7.71781515485532    3.41670596220900    2.14119263259126
H         0.21591477631880    0.02600167880989   -0.25884349757197
H         0.66641502857465   -1.33236454036784    0.84320284712385
H         0.61312480577049   -1.60630682909296   -0.89628085867429
H         2.47762113873987   -0.14798651410810   -1.28282525888243
H         4.26925264175358   -1.38994236604838   -0.49158467163715
H         2.98730971741005   -2.61744543665214   -0.63737941170456
H         4.33016635208472   -2.96990321464354    1.30346705624593
H         2.65416041926978   -2.51974187440985    1.75810748677712
H         4.08026825359816   -1.34659434705232    3.19441964814439
H         6.03375797508601   -1.15927292430571    1.09270440045889
H         6.17286605926342   -0.23868775006322    2.51148192436295
H         6.13657142020524    0.74577559167523   -0.03068366099339
H         4.15850649502301    1.17246431142083   -0.89446074486620
H         4.00746397506606    2.35448172419636    0.50629509646932
H         1.94658341445871    1.23897799747939    0.70063224952461
H         3.73839018532562    1.07045199803859    2.51081272989571
H         1.52359260499077   -0.93180844349478    2.75907545082809
H         1.31568484748503    0.64745188606555    2.98125364128665
H         5.43577299273735    2.54235794238545    2.17653359812933
