36
 energy: -51.088418898495 gnorm: 0.123146621446 xtb: 6.4.1 (79825abcba525fcdf90b791dcacef51065a7a4e7)
C         1.73666588478889    0.20853800534608   -0.99239597758645
C         3.02824959769706    0.03335733346569   -0.17021452695042
C         3.23992806017688   -1.49002409997145   -0.10588615256236
C         4.13697893305393   -1.89957580471816    1.05934661807784
C         3.90495766428570   -1.20884393347282    2.40519966837277
C         5.09582066271508   -0.32027807540809    2.80072353041956
C         5.33285890998726    0.81764380559856    1.78767926402018
C         3.97562929593678    1.53795069686870    1.65314236900613
C         2.80230492292561    0.62925301061744    1.24124907585007
C         2.59461805363357   -0.42697831667178    2.33035149324632
N         1.33120000639855   -1.09918517622349    2.04363757145629
N         6.29529370908265    1.74357329547860    2.38588826589961
C         7.40743986703440    2.19459733064859    1.75531006346596
N         7.61187646286082    1.78094310854900    0.49847143605856
S         9.19464219545572    2.09558248000485    0.06799917028819
N         9.52473327931645    2.85723279212071    1.51682591310578
N         8.48519638727497    2.87017477087725    2.33121950205432
H         0.81948329012640   -0.22313729476778   -0.57673344231755
H         1.92001589215111   -0.37918709848094   -1.89911694161227
H         1.49814828238820    1.24627377446413   -1.24043484663731
H         3.81380181953268    0.57224261854977   -0.71825335743642
H         3.79830760100250   -1.83876069127340   -0.98506552841768
H         2.24913163753165   -1.93680892461745    0.05934922844859
H         5.14782600619047   -1.70937990636414    0.67420208531714
H         3.96922726389834   -2.98088596676498    1.16649276356863
H         3.85177416629475   -2.01880200846112    3.15071707940674
H         5.99195149671761   -0.93373282296703    2.96242879726407
H         4.84475262120609    0.21536822324597    3.72860324145848
H         5.77152801840975    0.41402228004057    0.86711053804192
H         4.14780130440331    2.45764048952829    1.07652471253010
H         3.78504608430527    1.83899240662751    2.69563815743677
H         1.91287708725145    1.27479371948213    1.28025156438462
H         2.56977540705319    0.07929772577442    3.30395561443412
H         0.58158250216449   -0.40585506363850    2.04940360867468
H         1.25798073046145   -1.89275605773309    2.68103752900330
H         5.88969787348695    2.29288459996602    3.14125083110174
