36
 energy: -51.097322249472 gnorm: 0.113948961061 xtb: 6.4.1 (79825abcba525fcdf90b791dcacef51065a7a4e7)
C         2.07425693583624    0.38874457729245   -1.18955932659926
C         3.17537894381437    0.16610540250419   -0.13465591161080
C         3.42882289964680   -1.35217921907815   -0.11999705850744
C         4.31884740807019   -1.83148777413988    1.02382109738293
C         3.92803519794132   -1.17934773978590    2.35206957848778
C         4.97692146175788   -0.20441759281496    2.91197306161366
C         5.12983239068388    1.03080759905153    2.00194616394464
C         3.74841886559536    1.69884543136208    1.84562439005116
C         2.77029391871703    0.65299548567526    1.27857313203490
C         2.59045541400535   -0.44146340542860    2.33437632629921
N         1.50787205350378   -1.36942076733771    2.02260634678582
N         6.21402164123876    1.90610415319116    2.44901408471230
C         7.33797151627247    2.09052455493929    1.71372749243436
N         7.56206114336209    1.33056654662213    0.63447075699788
S         9.08372437430286    1.73892540464097    0.08018227643323
N         9.36455658687459    2.91128528166779    1.23555054552817
N         8.34929651954655    2.98203124312185    2.07714626717873
H         1.05992025004024    0.45863849182038   -0.78141872504457
H         2.14371242412303   -0.45627677827361   -1.88403450474106
H         2.26388887568380    1.29411574249358   -1.77235623483163
H         4.12725473989731    0.67315370491570   -0.34601035265339
H         3.81400066732449   -1.62854932527026   -1.11076390827724
H         2.45034196119717   -1.82497002516280    0.04625838721949
H         5.35679139588942   -1.52628728185380    0.83448662918906
H         4.21660963567778   -2.91609124075725    1.17226418563609
H         3.80096085402906   -1.94230843790735    3.13718095459488
H         5.94824405417546   -0.71127471342452    2.98376491950083
H         4.65674315726840    0.08828434398530    3.92327138344097
H         5.39559248386312    0.77060549701001    0.97022229777104
H         3.71402419655326    2.58045959074081    1.19023602733933
H         3.29875399936447    2.11148200703817    2.76283651423405
H         1.77615650407666    1.12199300541397    1.24604610923001
H         2.49978422085227   -0.03271602324019    3.34903976488878
H         0.61585539750108   -1.04756210951045    2.40126131846096
H         1.79698108674621   -2.17981758044939    2.57130252068512
H         5.97942376693907    2.63863043242178    3.11624160258453
