36
 energy: -51.088584870945 gnorm: 0.133841357969 xtb: 6.4.1 (79825abcba525fcdf90b791dcacef51065a7a4e7)
C         1.25902200691788    0.23493095363623   -0.73801002426051
C         2.66573042388001    0.12556517298014   -0.11827649531414
C         3.08955924742423   -1.34921005411070   -0.24093069093436
C         4.24831260024770   -1.67569362039559    0.69763173142424
C         4.16303344074394   -1.03835401109253    2.08644075520978
C         5.25559779750141   -0.01458073112778    2.43620423094625
C         5.10111234248907    1.15668626509996    1.44545709526450
C         3.66937656938122    1.71552760325058    1.57523939699177
C         2.57598208088809    0.65819295366472    1.33314523402680
C         2.78895223609935   -0.43874747401980    2.38017338101066
N         1.91352394950677   -1.60224460835949    2.27921871072891
N         6.06520236805385    2.13832779608586    1.94384497970494
C         7.37144883355665    2.09924375855447    1.58313287387564
N         7.99430716883987    1.07997694234042    0.97840971144690
S         9.60942020210718    1.47922629154788    0.83191222601458
N         9.44884428849177    2.96019505769492    1.58631075515215
N         8.19457654926014    3.16794444810272    1.94365371006042
H         0.61473643929894   -0.55544043257543   -0.33732061611444
H         1.38909211439304    0.04370799161996   -1.80931599129072
H         0.79040225761691    1.21284637600728   -0.59877493546313
H         3.35605816291445    0.79870537138451   -0.64569103270879
H         3.25804527813409   -1.58180230450324   -1.30106020723885
H         2.23959843067334   -1.95290330104693    0.10795042676496
H         5.11640467980942   -1.26486541707566    0.16475376611550
H         4.23142994073426   -2.76439273361985    0.85028101188783
H         4.21948854380654   -1.87684885097456    2.79945969648348
H         6.31376301048551   -0.29629124135900    2.35588385285479
H         5.19941950559262    0.30349870821766    3.48814640533123
H         5.25093945061780    0.83897270643849    0.40651646732082
H         3.45611670295586    2.40555360131334    0.74678010603725
H         3.54693015050305    2.25742966057369    2.52660397321737
H         1.60376968923953    1.14176045011608    1.50718952554924
H         2.75451461838702    0.09206064534656    3.34032668395857
H         0.95132520967531   -1.40134895278458    2.55577036378424
H         2.19657467654060   -2.25182800828243    3.01360158604190
H         5.92283793131183    3.09728536789880    2.25522293718922
