36
 energy: -51.085741478378 gnorm: 0.129035066030 xtb: 6.4.1 (79825abcba525fcdf90b791dcacef51065a7a4e7)
C         1.69346393411764    0.24503402120992   -1.11196222399482
C         2.77304177149071   -0.05562804006369   -0.05414697108700
C         3.01879288918011   -1.57311199116024    0.02638729112257
C         4.15752578830851   -1.90388539695056    0.98767634233394
C         4.09550289982810   -1.18685213186224    2.33833592653299
C         5.24611638548196   -0.18321629827647    2.51984854467097
C         5.12636402177639    1.07389833092147    1.63518240162974
C         3.71708285593354    1.69954226145248    1.59631487755377
C         2.68781576462633    0.57934892128355    1.35578670189489
C         2.75264524510206   -0.47020751933025    2.46894929866553
N         1.63447053592092   -1.40476953925795    2.38788588765142
N         6.08095364598740    2.10715652360065    2.03843953664023
C         7.32784142728236    2.19359452318345    1.51334911458272
N         7.84223968698767    1.47364681089862    0.50855203030866
S         9.44240457257754    1.93533951411247    0.38299782521470
N         9.46564778736188    2.97927005947328    1.68600934563491
N         8.24186239749552    3.01086795175875    2.18138016879315
H         0.88798171173149    0.84029511630942   -0.66788403135471
H         1.22699508773013   -0.62515910862862   -1.58772651116792
H         2.13673544682463    0.90084133892540   -1.86610848641332
H         3.71270826730903    0.35132650678941   -0.45320974433377
H         3.43073455848917   -1.89956985891206   -0.93802477255331
H         2.10365382043556   -2.14499920198165    0.23629791070598
H         5.05742004867966   -1.53268673464417    0.47902667431083
H         4.12860887516787   -3.00034121043017    1.06384101055802
H         4.23112242725372   -2.01582196774046    3.05182954758085
H         6.20801378619325   -0.65965839717179    2.28901935051127
H         5.24758486552710   -0.09589598616570    3.61679242536761
H         5.34297789295891    0.72879484917911    0.61696350293328
H         3.73071351727635    2.34188644814082    0.70459261018886
H         3.52465596097541    2.42678772738170    2.40119464796810
H         1.69680308412685    1.05577097884931    1.37133604620192
H         2.77939884624932   -0.04125521719702    3.47896006871955
H         0.78125475312885   -0.85455583804283    2.49722028775682
H         1.70915517384189   -2.12819602371172    3.10375657603043
H         5.81853700595867    2.63259721767234    2.87022861589733
