36
 energy: -51.088443519254 gnorm: 0.121365447070 xtb: 6.4.1 (79825abcba525fcdf90b791dcacef51065a7a4e7)
C         1.71435561520850    0.42873620159087   -1.08169272433839
C         2.85734447496716    0.01164003250430   -0.13593043486658
C         3.00736399172250   -1.51988273701953   -0.09631961581632
C         4.09638083505725   -1.97557689648099    0.87145380979643
C         4.00148888936676   -1.32673640495685    2.25430098990871
C         5.26136116149100   -0.48948299556012    2.52974906527253
C         5.37243841030271    0.80522309989035    1.69986355896157
C         4.00665874862959    1.51617332448136    1.60925406170246
C         2.79617436978627    0.62014177619375    1.28686820029412
C         2.76012610221187   -0.44598997097141    2.38548829559669
N         1.46063406867117   -1.11035084790624    2.37008825835488
N         6.24024271036645    1.72635799601535    2.43464676503096
C         7.42703843188676    2.05543984140738    1.86795313172178
N         8.06079222605193    1.16412944258954    1.09563884129964
S         9.32320053498236    1.96681041172999    0.35302171640244
N         9.05028347607071    3.40458131837687    1.15707479314204
N         7.99369521131533    3.32920829805292    1.94573283467988
H         0.71513866815856    0.35595997790745   -0.63828329236341
H         1.78245201169786   -0.09606656229453   -2.04144574401065
H         1.83410217352998    1.47418160479728   -1.37836445896383
H         3.74899802720409    0.44265884325598   -0.61238916545454
H         3.27119315942311   -1.83945909128801   -1.11348548803243
H         2.02736916788325   -1.95575775604016    0.14496871722508
H         4.99549656120975   -1.62021542640503    0.35027080203799
H         4.04801177442242   -3.07391211881502    0.88459698565286
H         3.96268059317945   -2.11409257936595    3.02450935907113
H         6.20075366167461   -1.00710230542313    2.29493473892172
H         5.29296938587343   -0.20203068749831    3.59148582749526
H         5.72986767822440    0.67363559113974    0.67140999288071
H         4.20876075756233    2.35749403079639    0.93154123659650
H         3.82652633594457    1.97422078501012    2.59489616929004
H         1.78070594065580    1.02693241447824    1.39943417485749
H         2.94297803322705    0.04063064925896    3.35223702567896
H         0.69676407745688   -0.46415040867308    2.16614238434631
H         1.27782062636791   -1.35007818245844    3.34502649392448
H         5.86163676202122    2.40578901284148    3.09180315180663
