36
 energy: -51.091916713158 gnorm: 0.130650124019 xtb: 6.4.1 (79825abcba525fcdf90b791dcacef51065a7a4e7)
C         2.10452446778125    0.15791931937951   -1.30525017489736
C         3.13951328618884   -0.28554885951078   -0.25311271754105
C         2.85719962980216   -1.73795551504223    0.17168233364165
C         3.81084372921504   -2.07143161987080    1.31604107250304
C         3.66342168209053   -1.12788477974422    2.51197207162435
C         5.03786015821945   -0.59598180224733    2.95031122349851
C         5.46403028931351    0.42449026390737    1.87591474733410
C         4.35256390730175    1.32787827113147    1.30359753849518
C         3.01199122654891    0.64187375729537    0.98057995211139
C         2.55496928224124   -0.11483733438696    2.23094862589522
N         1.23911795751976   -0.74422480613633    2.17899844430267
N         6.61016856387613    1.18345431881092    2.37773220924652
C         7.51245344052052    1.88879680515953    1.65227056980476
N         7.59801442814199    2.04269752355061    0.32503986645402
S         8.93372891714277    3.01342601676162    0.07403256152064
N         9.32060936518356    3.15278552916198    1.69238749759395
N         8.46384591966596    2.50929725945269    2.46434644169554
H         1.15085303909974    0.44141267544451   -0.84646356973338
H         1.81842366923247   -0.70309096155355   -1.92005791722073
H         2.49898977821957    0.90082777181721   -2.00367240324865
H         4.16344517731701   -0.20526277556971   -0.64420586235357
H         3.00025728254485   -2.43294739844223   -0.66669830461916
H         1.79989011059799   -1.80099395053888    0.46616443108897
H         4.86376180532227   -2.04601698677882    1.00452826574293
H         3.65822400540630   -3.09918857478562    1.67559003675092
H         3.39521231728770   -1.70671234970392    3.41068180133166
H         5.84399434883830   -1.32956690867598    3.08269836120618
H         4.88483197854072   -0.10542200510334    3.92337151693275
H         5.70477436315279   -0.16839796416524    0.98523324171768
H         4.73214565788064    1.79093813367162    0.38193941161664
H         4.11190119472112    2.15922143343262    1.98528334151729
H         2.36907484001601    1.51164232850374    0.78186649343054
H         2.57785584886268    0.62279366241429    3.04348435353038
H         0.56429407628227   -0.03892014773596    2.47870558152997
H         1.30754193302641   -1.44320549184010    2.91936232729378
H         6.76226096547294    1.10722472492266    3.38166469784441
