36
 energy: -51.091914866067 gnorm: 0.128093207801 xtb: 6.4.1 (79825abcba525fcdf90b791dcacef51065a7a4e7)
C         1.96042244369665    0.30153788692097   -1.20432235462409
C         3.00847708248275   -0.04957643278856   -0.13046982296749
C         2.91454795933743   -1.57837781219694    0.02308969752945
C         3.89538804031920   -2.07596281164823    1.08165578073175
C         3.81468647944361   -1.27685304558538    2.38441270596440
C         5.11164848628125   -0.50745581932694    2.68451348803188
C         5.32876754636333    0.72877856029264    1.78902715146502
C         4.07875755425280    1.58522234278220    1.50094137503888
C         2.84859308400798    0.70447659430294    1.21274022688583
C         2.67438593031617   -0.26019280434294    2.38916161882642
N         1.40822210711764   -0.97496018959313    2.26176915774097
N         6.30553808050417    1.68949885412386    2.30324105961174
C         7.50533416472566    1.86095034802476    1.69577556171992
N         7.84517035742411    1.52769477731448    0.44437653604187
S         9.19190022528070    2.45855498270425    0.11381699542417
N         9.33172227044966    3.14186310836125    1.63095576716237
N         8.31343486579657    2.76798336023905    2.38417954226010
H         0.93752374391893    0.11748329918113   -0.85770300838825
H         2.11158721859882   -0.45886626540046   -1.97899367726927
H         1.99118142247302    1.31582930604127   -1.61123296368661
H         4.05190599394163    0.17103367157607   -0.39584405297780
H         3.13243735916853   -2.14445031298495   -0.89257804507786
H         1.90061700527522   -1.86249799832394    0.33902749133268
H         4.91484987535913   -2.01946031574448    0.67689953783653
H         3.82022052491012   -3.17085220562252    1.14813599089104
H         3.60426559679984   -2.05322755251814    3.13781991609933
H         6.00399139987620   -1.14543002398939    2.63719754744143
H         4.90135135644753   -0.27774420880693    3.73993782937403
H         5.76120099414439    0.39836212371277    0.83686436650322
H         4.21893891224266    2.33755048217725    0.71207385384350
H         3.88092746537755    2.11311186919013    2.44748319779963
H         1.97592918077735    1.37361638746900    1.20678247071804
H         2.79369672415876    0.32240094065366    3.31175958895268
H         0.62395861510859   -0.32788278026998    2.35604477846935
H         1.40519652506596   -1.55969720218465    3.09811118499027
H         6.31136241261098    1.96658382316670    3.28304383008380
