36
 energy: -51.089236571626 gnorm: 0.130511656046 xtb: 6.4.1 (79825abcba525fcdf90b791dcacef51065a7a4e7)
C         1.94330134521621    0.44168173515326   -1.18466901929107
C         3.03161296381294    0.15110707068984   -0.13300207741899
C         3.16177668568317   -1.38218928253009   -0.09181106210774
C         4.19409399011013   -1.83187457638175    0.93887049862659
C         4.01274152293328   -1.24843990260708    2.34207404503678
C         5.12673718961872   -0.23131715668122    2.63976206759101
C         5.09589811667953    1.07520920011243    1.82162399940470
C         3.67678802176703    1.67929684550127    1.83642690652622
C         2.71314532943473    0.59660469921841    1.31561192524094
C         2.66311095713300   -0.53264658313575    2.34866118655435
N         1.47624481620757   -1.37985563395728    2.28638932622570
N         6.14391324265561    2.00418783392818    2.24605678098538
C         7.36665661696067    2.08480562484345    1.66612571058418
N         7.74917168023183    1.32621102480709    0.63134847611125
S         9.31318488185367    1.76080555965186    0.23835742499358
N         9.38403943838290    2.94588867332475    1.41254986985979
N         8.26234522092720    3.06441299587534    2.09942353440834
H         1.07203844136642   -0.12671636943116   -0.84091418272833
H         2.10678577822257    0.00578631067029   -2.17686303536546
H         1.65319445120610    1.49349226203840   -1.25425408198073
H         3.95571264388154    0.58096124042270   -0.54422153015778
H         3.49478573461848   -1.84165940826604   -1.03221177861119
H         2.22792929379564   -1.85272134918199    0.24749060093675
H         5.12725912313478   -1.45878929107935    0.49577588444287
H         4.22120737517782   -2.93042868222341    0.97487553634752
H         4.02828550556136   -2.04562443964918    3.10293673450502
H         6.12666606989579   -0.68307680247232    2.59999674421618
H         5.07167773618117    0.10358622391585    3.68652903537890
H         5.46765303701460    0.92200328962419    0.80127407594978
H         3.54118924445420    2.50370530053840    1.12233717642772
H         3.34962351457408    2.05763521845639    2.81804242146480
H         1.82882171308683    1.24630466849616    1.24358669600891
H         2.67693670490274   -0.02807270887454    3.32336713748176
H         0.70309741021938   -0.86451265993049    2.70986426033674
H         1.68024330037936   -2.26593607362595    2.74968254005005
H         6.16127023653221    2.43011784780076    3.17077612309561
