36
 energy: -51.089780783951 gnorm: 0.119289488854 xtb: 6.4.1 (79825abcba525fcdf90b791dcacef51065a7a4e7)
C         2.69893115665262    0.52933946582245   -1.25677025071183
C         3.50073280814120   -0.11076143790117   -0.10688146588771
C         3.13462110284752   -1.58739611029821    0.12795765664108
C         3.72580796541332   -2.21399072572908    1.38814722877441
C         3.54028830489071   -1.29268552684022    2.59605627580520
C         4.91113488933105   -0.77473688419409    3.06151539547700
C         5.55945784800240    0.21149909866206    2.06938225425923
C         4.61780237650986    1.36312707994427    1.66188671951052
C         3.29804319317843    0.73790073525808    1.17259574317546
C         2.66227297817875   -0.07753994067187    2.30208926648477
N         1.27403264416750   -0.46889044598568    2.07864827790237
N         6.85450531868210    0.73794602516062    2.50203226405711
C         7.49813551675413    1.58785478940757    1.66458614039428
N         7.76312296096920    1.44199312008900    0.36034169725855
S         8.43428857951334    2.84908481604299   -0.23889227949541
N         8.36558588580362    3.60929460269984    1.24621084095725
N         7.86467313980261    2.82971104395244    2.18715572529560
H         1.70688629374663    0.09074594466019   -1.41112562237196
H         3.30644063344520    0.44915072310280   -2.16544124118042
H         2.57451705527016    1.59409050928532   -1.04197769823234
H         4.54548748134254   -0.11090558218526   -0.44794449116860
H         3.30467699829830   -2.20342521318860   -0.76532310845426
H         2.04608012780953   -1.66258395889023    0.26220509453751
H         4.80553502534084   -2.36723098077691    1.25764977739054
H         3.21888710201162   -3.18239095265224    1.50682709740513
H         2.90538100581706   -1.80720977464054    3.33552529543190
H         5.60873978718193   -1.61160726430044    3.19760823467067
H         4.79024492263816   -0.33059889529901    4.06103529324164
H         5.79588476530499   -0.32636311726685    1.14331834864346
H         5.10744570144519    1.89414402850447    0.83349613883723
H         4.56894503395413    2.17269694353634    2.40751077716698
H         2.67589001419976    1.61462215321755    0.94105521961377
H         2.64869702250280    0.55150464774157    3.20150925643423
H         0.71890339000246    0.37728979590605    1.94271873103033
H         0.92383855098730   -1.07666005654765    2.81984646398202
H         6.92718331744817    1.08977716849019    3.45479472834203
