36
 energy: -51.087675529838 gnorm: 0.125657535744 xtb: 6.4.1 (79825abcba525fcdf90b791dcacef51065a7a4e7)
C         0.84879661687174   -1.00585776836963    0.34278239866848
C         2.22809914666921   -0.59058729067913   -0.20487992583048
C         3.18918420612886   -1.78928264573795   -0.10958130870202
C         3.72289515283073   -2.03613194278567    1.29911251983351
C         4.24380748380192   -0.79304060678074    2.02412222383463
C         5.62792290584355   -0.32908047286296    1.54130905760247
C         5.50757037284797    0.86154362302819    0.56907373657179
C         4.13948947765478    1.17996394325918   -0.06808993415023
C         2.86170609554149    0.59579278678631    0.56285482389312
C         3.20250297079952    0.32478952076245    2.03095468063246
N         2.13470587718454    0.00022015356378    2.97156946316018
N         5.92721957511262    2.06341566762605    1.29079275086859
C         7.22581068604907    2.11914907565820    1.67611806674329
N         8.22318426332855    1.39130166273355    1.15840038482827
S         9.64800458716554    2.13848454265275    1.60679359530804
N         8.91187161020581    3.35149205537458    2.48707268247657
N         7.59799390624579    3.22639969491150    2.44104384289623
H         0.33349403507136   -0.14182746646269    0.77666913737189
H         0.83608388056729   -1.82420215277624    1.07170747754132
H         0.27415378636850   -1.33592898709666   -0.52678534450323
H         2.18263627203042   -0.28453442732572   -1.25944190241183
H         4.00112689967176   -1.74066502823569   -0.84765086630490
H         2.51953220729216   -2.60733692730287   -0.41116106352110
H         4.55138282881897   -2.75019817691584    1.39931318954668
H         2.89815270174039   -2.45031458229719    1.89669532649235
H         4.38251954171855   -1.07641009371181    3.08011345026296
H         6.12686177217719   -1.14840076794091    1.00717419817992
H         6.14457840241857   -0.07464932443156    2.47898957598562
H         6.28063264421814    0.84580195222099   -0.20868884247710
H         4.25388364904422    0.95432776490831   -1.13765186097447
H         4.06847529908994    2.27927439182145   -0.08289008375262
H         2.10227804831118    1.39103579618033    0.54931043064916
H         3.68941954185682    1.19502341950342    2.48969510009661
H         1.59416081379989   -0.71253141804309    2.47916462215307
H         1.61354020960146    0.86676333286830    3.10898771774466
H         5.29517877850131    2.37887827407137    2.02416257119434
