36
 energy: -51.093135243536 gnorm: 0.125907336040 xtb: 6.4.1 (79825abcba525fcdf90b791dcacef51065a7a4e7)
C         1.89106801885436    0.09402114848803   -1.12397833593717
C         3.06323368261770   -0.13456387774171   -0.14999905457070
C         3.21409916048909   -1.65066028933853    0.06983769105619
C         4.32312728682711   -1.77398876650382    1.11149358249520
C         3.99241561019784   -1.12861008144376    2.45922536986097
C         4.98866353104879   -0.04445966363605    2.90222768005325
C         5.10595859540433    1.10233542401067    1.87830635513526
C         3.76700532626430    1.73718185591963    1.45030106007199
C         2.75002522121538    0.61545634130199    1.16823548297441
C         2.69639810153256   -0.32401851302773    2.37629742718589
N         1.54865050425802   -1.22565760653998    2.37248808957505
N         6.16890628205902    2.02816320998752    2.27132705261393
C         7.32857811510463    2.15711836000014    1.58107171229899
N         7.54547918227208    1.68456448916539    0.34729935476250
S         9.16848154692570    1.94993426603428    0.05593380906720
N         9.53900358569667    2.52799692914948    1.57801371160554
N         8.43411051501442    2.62372372979510    2.29501374449108
H         1.76712907278259    1.16475091153780   -1.32024279269261
H         0.89915215251678   -0.28502302718692   -0.85266790093494
H         2.08535899093353   -0.36795705948274   -2.09564525899967
H         4.00377742277164    0.24879347879991   -0.56982142455665
H         3.70505595890389   -2.13428663080815   -0.78539811601555
H         2.26947946227503   -2.08071401620486    0.43225234488054
H         5.28927815205521   -1.44507040267373    0.70567611800107
H         4.46713062654251   -2.85026047241995    1.28398950928014
H         3.91202545276391   -1.81324804534770    3.31914691375309
H         6.01917467987781   -0.37739783579877    3.08312748307841
H         4.63393285607766    0.37057988267714    3.85764444317994
H         5.55311697203634    0.72980612057466    0.94875860812123
H         3.86908464176781    2.34873207412284    0.54280638979967
H         3.27717501723557    2.39611633972673    2.18488742914176
H         1.78307882283611    1.12762790509337    1.05859593724214
H         2.64340944069225    0.25778152174212    3.30556515054426
H         0.85859374471487   -0.96262983026416    1.66728999446381
H         1.15210766984168   -1.28187946117366    3.31109737859408
H         6.28990105214506    2.26965569643133    3.25309338860068
