36
 energy: -51.097456958607 gnorm: 0.118275291305 xtb: 6.4.1 (79825abcba525fcdf90b791dcacef51065a7a4e7)
C         1.55190631862452    0.31459556097309   -0.98932765736775
C         2.82754875201900    0.07316254994437   -0.15908338063854
C         2.98172113607884   -1.45718448844348   -0.09658764098491
C         4.26310486471896   -1.74852623834033    0.68018517196496
C         4.21453638463913   -1.20084913257629    2.10845535045250
C         5.29921553588465   -0.15271076033167    2.40681781312151
C         5.11996413457575    1.13749048381620    1.58185620113123
C         3.69466259674478    1.71565835797024    1.69697275450606
C         2.71502467780601    0.59773857722373    1.29368310185696
C         2.86593121628301   -0.51848970310834    2.33106641456957
N         1.74809273970922   -1.45505998583338    2.39077674467085
N         6.00595559981465    2.21185443210167    2.03156874773153
C         7.32028849818897    2.10831843788063    1.71576829538767
N         7.81088248928487    1.23422441848973    0.82817344400852
S         9.39951960288131    1.66563702145082    0.54609729690309
N         9.40478008930430    2.96227266957419    1.59818026525160
N         8.22667994254538    3.06025383784054    2.18684068300060
H         0.70796499657439    0.02104001946147   -0.35534736564320
H         1.43332103842102   -0.21766982976127   -1.94001793474728
H         1.32547526730613    1.36151556961834   -1.20840965725434
H         3.66210049683052    0.55717798422036   -0.68547547988759
H         3.02965190810349   -1.91127139134348   -1.09552158031920
H         2.08532550297577   -1.73917145586979    0.47398678895900
H         5.11512199371799   -1.27543133348479    0.17365716711229
H         4.45853678292973   -2.82882690850549    0.74026354844794
H         4.44102141642394   -2.00730813223986    2.82468518809811
H         6.27679503266263   -0.58583991990846    2.15729177864001
H         5.20281215704436    0.10890757882418    3.47132478605950
H         5.49481973238105    0.89227298819118    0.58078709706276
H         3.50118633959714    2.59631216091147    1.06850140158238
H         3.52806975669611    1.96706520447965    2.75658916805926
H         1.74439731415454    1.09462925632223    1.43618938046715
H         3.04962048839884   -0.05910998274975    3.31089603895845
H         0.83459719296890   -0.99994999189313    2.42344273892155
H         1.93152602198604   -2.01392476433903    3.22469334825116
H         5.74351740511822    2.66290962493719    2.90592501809851
