36
 energy: -51.084998186061 gnorm: 0.118696835356 xtb: 6.4.1 (79825abcba525fcdf90b791dcacef51065a7a4e7)
C         0.89259773352355   -0.99188835328017    0.15743141022905
C         2.32735181522826   -0.51924230717014   -0.14743822736550
C         3.32360369561024   -1.69097953717693   -0.21186591760853
C         3.67547260744310   -2.09477440770133    1.21758790406959
C         4.21574618881434   -0.96076152300743    2.09187849077181
C         5.56660562785981   -0.52167597004201    1.50321414716753
C         5.48567095145184    0.77536664789765    0.67349010588165
C         4.12917733498996    1.15589651567140    0.04568722352819
C         2.87821700224503    0.60935454017308    0.75875645387710
C         3.26259998429885    0.22899186123353    2.19140309871735
N         2.15664654974535   -0.02294765153061    3.10992666669090
N         5.87733341992908    1.97365269343823    1.41658580396232
C         7.19541644662837    2.27704737676146    1.50894072232455
N         8.16107607524448    1.42613691203494    1.14015849484242
S         9.56588662195059    2.11611660304441    1.72315680523423
N         8.86324271288568    3.53034198838472    2.26576932754995
N         7.55279849829577    3.48656207646136    2.10809674649677
H         0.14327277006133   -0.19303198460042    0.18357359978856
H         0.86139561690417   -1.55390726968394    1.09782605270205
H         0.61351714749207   -1.71365757074049   -0.61488502244783
H         2.16370689860493   -0.18521269068377   -1.18159525053334
H         4.22796310253065   -1.38280330712640   -0.75364332512175
H         2.82405882460086   -2.46564730099536   -0.81098337519013
H         4.48958628900015   -2.82848348335539    1.14539027279092
H         2.90246573818623   -2.55021595602203    1.85310812814396
H         4.37469954714475   -1.33664413407031    3.11564743568019
H         5.77568148953990   -1.31659157287307    0.77525655027223
H         6.34939004686104   -0.50091875074239    2.27634449795141
H         6.22707791463248    0.62406653981387   -0.12036862382582
H         4.07659925943788    0.79880578123024   -0.99242750326313
H         4.18002739408451    2.25632467336696    0.06044049609575
H         2.11697216712511    1.40295341534006    0.76449880396977
H         3.87067542551906    1.01301866222425    2.66085360849315
H         1.25522784276516    0.25925515837806    2.72201923693573
H         2.28591860841640    0.38942311324843    4.03439061373384
H         5.24757210172733    2.77335909649212    1.44292671287818
