36
 energy: -51.083523007031 gnorm: 0.118505686388 xtb: 6.4.1 (79825abcba525fcdf90b791dcacef51065a7a4e7)
C         1.03182551722013   -0.59715857629136   -0.23105778640173
C         2.57204027013906   -0.54622230590368   -0.22930151284699
C         3.16639516305765   -1.92331599653942    0.11709726399182
C         3.16102983777353   -2.16274371706631    1.62469331446836
C         3.99532981277305   -1.07766339478364    2.30938963770626
C         5.40048219839283   -0.89005436119096    1.71399676690220
C         5.66733769805897    0.49607702247735    1.09372275149752
C         4.54055561458580    1.00901022869344    0.17379014005285
C         3.13739225079273    0.59340401728125    0.65387519834575
C         3.21806450355888    0.22637344735311    2.13835593071149
N         1.87747031337097    0.25030747603809    2.71500701374314
N         6.15178165901570    1.54637371493630    1.99019974936865
C         7.23223492426930    2.30187640722932    1.67435637919560
N         7.91032696884094    2.24440823519765    0.52134465058457
S         9.43491423713336    2.80253806141514    0.91323294159027
N         9.09531594923003    3.24034349160094    2.48840584064308
N         7.84691519452175    2.91338470987581    2.76882494670049
H         0.62497652225989    0.36822640716247   -0.55175787620703
H         0.65327835720582   -0.96588193548592    0.72911201864434
H         0.72344814447725   -1.33260138785696   -0.97894596063716
H         2.82861813017672   -0.37657101207362   -1.28439508185761
H         4.14401688522974   -1.94970655462733   -0.38282332706664
H         2.50354063746008   -2.68425463132946   -0.31901422513525
H         3.65002235365504   -3.13482095752422    1.77394060655746
H         2.16492453197688   -2.21248039071070    2.08746006102132
H         4.10364643502790   -1.29783414624979    3.38384257343612
H         5.57607379632154   -1.63604603412583    0.92774630473026
H         6.08236819629168   -1.00896754776500    2.56945219772271
H         6.49202029866591    0.43942620768451    0.37297523079655
H         4.63950819811673    0.66228925155500   -0.86445519274423
H         4.69706367297220    2.09885952834497    0.13532917626388
H         2.43704706778055    1.44123524152518    0.65884487360446
H         3.75877592778729    1.00313406204521    2.69433405283478
H         1.44545380483627   -0.65412661249232    2.91001215654982
H         1.23340415911084    0.68648382542067    2.05445914084175
H         5.81843082554348    1.75332702722621    2.92981191387745
