36
 energy: -51.094205290993 gnorm: 0.123918270927 xtb: 6.4.1 (79825abcba525fcdf90b791dcacef51065a7a4e7)
C         1.89107122719594    0.34261879450013   -1.07871112373195
C         3.07301370319113   -0.13277302392914   -0.21160461021242
C         2.98164967314004   -1.65412791610544    0.00465640693822
C         4.02180118430850   -2.09420123206520    1.03160363355977
C         3.79616529085926   -1.36294166079091    2.35697630187305
C         4.98889393528530   -0.60286372782621    2.96015372191683
C         5.44011190833058    0.57066353435836    2.06765831131002
C         4.27869503870875    1.41717894024003    1.50771465859811
C         3.00623867652942    0.63523515613535    1.13155461604510
C         2.71481476699877   -0.28438836683684    2.32078429709657
N         1.37519829935939   -0.83055339090204    2.12733245532424
N         6.51366673952425    1.44489324718013    2.54166520923733
C         7.47034223026783    1.99426063863817    1.75370070205169
N         7.70510651100716    1.60908546153026    0.49311621088197
S         9.04113558968722    2.47748556649765   -0.00724288673582
N         9.11329751112161    3.40468816069125    1.37957298369414
N         8.23167987276099    3.03440870065846    2.29044334893933
H         0.98499903624587    0.26063977388380   -0.46825600519257
H         1.79378929291332   -0.21708408919576   -2.01596767141559
H         2.00177299062139    1.40009611744436   -1.33326227646453
H         4.07829373236660   -0.03442446656648   -0.64470487763005
H         3.29072104460540   -2.02713651870248   -0.98109243285740
H         1.99141063046577   -1.99245398892994    0.34164167775231
H         4.99194929978879   -1.90782678535013    0.55160384209133
H         4.00890462694543   -3.19075299595203    1.11072692115519
H         3.42139408944895   -2.07330129541041    3.11168983775297
H         5.82114590284725   -1.27892717267801    3.19641768403733
H         4.74026474301523   -0.13656100816303    3.92537813330578
H         5.96013648054490    0.05775898989849    1.24955619112752
H         4.68583443852594    1.97768843795451    0.65446964969488
H         3.91085259494423    2.11780268969813    2.27424177977926
H         2.23557987787047    1.41336577097508    1.03193711213306
H         2.74689609218587    0.25966146348045    3.27357921529871
H         0.73507970315259   -0.04284335845958    2.01585426081737
H         1.05957662197533   -1.49858344146543    2.83125952785598
H         6.45276300256579    1.88286871264353    3.45888475765996
