36
 energy: -51.093135251894 gnorm: 0.128382464470 xtb: 6.4.1 (79825abcba525fcdf90b791dcacef51065a7a4e7)
C         2.36682828551603    0.46997776500388   -1.17525590665067
C         3.35670625565319    0.18991446014017   -0.02783914338683
C         3.60501391074550   -1.32902911555367   -0.05595698436542
C         4.25745439191065   -1.87713586833680    1.21057397589636
C         3.86359791653299   -1.21594274319506    2.53343660641095
C         4.92144052770813   -0.26601398116845    3.11888296222410
C         5.11635716149947    0.92850626817590    2.16366525941610
C         3.82560741858588    1.73782785437307    1.92287891321137
C         2.84536053011403    0.70195538701906    1.34136200379140
C         2.56984391645212   -0.42725650371277    2.33829410501205
N         1.50602799758337   -1.29839734437404    1.84870097778487
N         6.24579330130832    1.75476167985610    2.59163269405663
C         7.24740050081536    1.97098284394801    1.70396608343899
N         7.25086024213323    1.72333832201563    0.38821243814803
S         8.70611889477027    2.13427085232000   -0.32087737604042
N         9.37542630168664    2.51630973499843    1.16042074948362
N         8.49095194574815    2.43475161300648    2.13771023504752
H         1.30297888064252    0.44987361296545   -0.91417529992240
H         2.61424066265187   -0.15973026034992   -2.03748316319201
H         2.48025750046346    1.49567848638541   -1.53633940982779
H         4.33914119018173    0.62306107769190   -0.26244905429599
H         4.31181750335733   -1.60993176657427   -0.84834809659920
H         2.61851841948010   -1.81219187421168   -0.10042442744948
H         5.34740237836222   -1.90385853901834    1.07782655949074
H         3.93842568815297   -2.92734685261975    1.27484029466338
H         3.66032471563867   -1.96372519681478    3.31711905499663
H         5.82303327136652   -0.88431185560577    3.22068692441139
H         4.54534404233703    0.12556933726492    4.07602809461802
H         5.44327163134758    0.49671133981164    1.21000506123766
H         4.13826831122802    2.40741162676229    1.10933040096653
H         3.54541707888469    2.26354615027283    2.84962545973798
H         1.86622422546024    1.18817636072026    1.22216832017133
H         2.33161102290920   -0.01387587966518    3.32682792865284
H         0.62658697040105   -0.78526754566744    1.92582156948009
H         1.49235335875919   -2.13657743468218    2.43064741313266
H         6.47715712882388    2.06088169606789    3.53481071798844
