36
 energy: -51.082330224463 gnorm: 0.127716914982 xtb: 6.4.1 (79825abcba525fcdf90b791dcacef51065a7a4e7)
C         1.81344225782313    0.91185139142678   -0.79267081166280
C         2.94120668015454    0.43166412508348    0.14136701865198
C         3.72608707182663   -0.83231769698206   -0.25353752622685
C         4.68431770755476   -1.40689517476799    0.78658507857029
C         4.31736496685112   -1.20936166987864    2.25919875058714
C         5.22040086394206   -0.15641199408521    2.92249827198984
C         4.97561546813582    1.13000554080719    2.10854370086233
C         3.51031314068450    1.56098330180339    2.32339632982175
C         2.59810447106246    0.51927728193451    1.64900655198441
C         2.85028468932739   -0.80132416992729    2.38202734009109
N         1.94161932325264   -1.85578501481222    1.94301516313098
N         6.02069912785293    2.13989719900090    2.28000543065754
C         7.17095382304659    2.00792585005170    1.57472653211258
N         7.41650064122832    0.96115665285526    0.77689918593891
S         8.90660317613237    1.28246339748217    0.09439784098066
N         9.11614166661412    2.75273862050268    0.85765051376459
N         8.10711070509432    3.04041839424167    1.65960950926731
H         2.34707814249767    1.43524054047606   -1.59369475890014
H         1.11835189421199    1.55859082045801   -0.24516883118985
H         1.34396202205507    0.06787498308317   -1.30511747409669
H         3.64470890601355    1.27286898240846    0.06859872042034
H         4.32480243153189   -0.61923542776392   -1.14935958136627
H         3.02467447276320   -1.63643409821364   -0.51813936569419
H         5.68580669911249   -0.95754092165498    0.74886036004138
H         4.84691262794158   -2.47513794089421    0.58342782758222
H         4.44131417029589   -2.17448133520123    2.77672885530934
H         6.27185398665871   -0.46916057316961    2.96897888561416
H         4.87748609850185   -0.11076707106385    3.96712206710988
H         5.06855782970659    0.72179354819573    1.09488084168014
H         3.39428624029153    2.50533639323997    1.77321868702544
H         3.10688936561681    1.72209040068942    3.33583856367905
H         1.54692858969819    0.80580161531263    1.79820087339131
H         2.54553568092201   -0.59934798986524    3.41700137202235
H         2.23806638672762   -2.17935079720848    1.02101157248271
H         0.98020195130059   -1.51610122479014    1.90195334648757
H         5.92575021852946    2.89540286872070    2.95603750669190
