36
 energy: -51.087572329523 gnorm: 0.132256917591 xtb: 6.4.1 (79825abcba525fcdf90b791dcacef51065a7a4e7)
C         0.94738855773211    0.08070103848434   -0.70501958070226
C         2.37740891591547   -0.07725240507545   -0.15279531873754
C         2.80094105898283   -1.55628453253701   -0.10062761818965
C         4.13427451119373   -1.80861223230126    0.59848108680750
C         4.24674442357925   -1.09340237420553    1.94684686889843
C         5.40519181335767   -0.08522121569153    2.02243494349418
C         5.13682746740114    1.12587699405715    1.10672006457400
C         3.71715520659476    1.72670157581914    1.15726651354909
C         2.64891038230381    0.61821451675648    1.20403369609786
C         2.98447175583023   -0.33537436897524    2.35423778025746
N         1.86304612114404   -1.18034166345554    2.75264333843573
N         6.09882879689333    2.20061634035238    1.35363896366949
C         7.44033457220053    2.14639744913595    1.54163676410695
N         8.17869739418640    1.28425028075663    0.83165785010246
S         9.76847141224809    1.57531315472688    1.25279042028509
N         9.41423236251679    2.89910600821524    2.20686454103452
N         8.11229852062411    3.04177120630528    2.37614617139925
H         0.59789723830569    1.09580128730523   -0.92358339174938
H         0.26400183005266   -0.25377810982102    0.08383225627370
H         0.74228444495922   -0.44122933091788   -1.64354526611543
H         2.97242564048149    0.44316419699093   -0.91631212105854
H         2.72209738834864   -1.96053426741211   -1.11882561005216
H         2.05814029344972   -2.03269244740148    0.55502435482057
H         5.01810490561724   -1.57409067011716   -0.00993168166438
H         4.24547024337748   -2.89662926103351    0.71120672149584
H         4.47649300230645   -1.79278457604340    2.76705229938348
H         6.40910440998226   -0.46725078498013    1.79497347524095
H         5.53530623817031    0.34039810970090    3.02883015314655
H         5.23929523235456    0.85172161719226    0.04977782092603
H         3.58257504622803    2.39771268994382    0.29727074069670
H         3.65481890921246    2.37136615162757    2.04848327863609
H         1.72907473599063    1.12530279726652    1.52974796251852
H         3.32553001489220    0.43280924204445    3.06021995197367
H         1.37015347621931   -0.69842509972942    3.50595573985427
H         2.32529177736669   -2.04442310238438    3.03740068268696
H         5.73741227931942    3.02177448049737    1.83519987211608
