36
 energy: -51.087807680470 gnorm: 0.120156846742 xtb: 6.4.1 (79825abcba525fcdf90b791dcacef51065a7a4e7)
C         1.89121993615527   -0.01057857663497   -1.04930365353351
C         3.11839540922548    0.14054832160711   -0.12948839298175
C         4.09423805841832   -1.04941303095329   -0.09261001574299
C         4.12099052055845   -1.88355690214184    1.18554826841528
C         3.91247925825497   -1.11518480446986    2.49260305666222
C         5.05707508122754   -0.13791119708290    2.80721359621875
C         5.13067996518498    1.14236211214331    1.95117938117982
C         3.69433082947733    1.69789981764112    1.86577784904241
C         2.73095867243195    0.64784076443523    1.28151101287189
C         2.56315742322555   -0.40803639211081    2.37780874323432
N         1.52780461354218   -1.43471364890542    2.31245979653672
N         6.16143151333848    2.07272807279465    2.41318649286467
C         7.28328522791435    2.17080239557249    1.65837109748176
N         7.37874238219501    1.46116477554261    0.52706661359394
S         8.93221377419176    1.70078975400843   -0.03752011547265
N         9.42949094355733    2.65054297522030    1.24265740606634
N         8.40745909107470    2.90635901068535    2.03893022818702
H         1.02916582129438    0.08228655774101   -0.37954131025442
H         1.87446002052970   -0.98581234799964   -1.54912274481952
H         1.87948226700073    0.76526752469218   -1.81952083834179
H         3.77531504795904    0.90398823676737   -0.56932052573411
H         5.07860626767467   -0.57580085153763   -0.20694302610233
H         4.01601777322630   -1.74857047507887   -0.93739248478375
H         5.09620476419734   -2.35615639989443    1.36423654713829
H         3.32176873808436   -2.62909956788198    1.06611933608101
H         3.84102336280831   -1.85511109587173    3.30627370780961
H         6.01342084270073   -0.66346898945056    2.68589752785180
H         4.99488932818762    0.22229800530654    3.84514188701353
H         5.48735160878914    0.79977448985709    0.97229901796279
H         3.79289884185299    2.60817061474992    1.25778782626703
H         3.35122128043777    2.09478795385259    2.83454054974069
H         1.76395726230095    1.13485014096505    1.08901158988613
H         2.42123941794491    0.19541175812999    3.28364934635994
H         1.52963440149437   -1.80582466038172    1.36117667965438
H         0.64098928048174   -0.93225125863175    2.36230585120856
H         6.19412383165300    2.36093910307343    3.38924442877511
