36
 energy: -51.091055753229 gnorm: 0.129515062858 xtb: 6.4.1 (79825abcba525fcdf90b791dcacef51065a7a4e7)
C         1.98171558511201    0.22416616147933   -1.18539307726513
C         3.07372150714220   -0.19230874714405   -0.18093759852914
C         2.87995167597367   -1.68629871546708    0.13542317323998
C         3.82138874039168   -2.14876997471004    1.24448443133857
C         3.69532178927184   -1.25275006899515    2.47879407048755
C         4.96800270586175   -0.50568562183232    2.91044335167742
C         5.48876218226490    0.41615410131556    1.78958068901271
C         4.33513892687066    1.37433256835199    1.42893985634994
C         3.01875041111389    0.63366525864042    1.12792346564574
C         2.63902377445079   -0.15299332637033    2.38565097754351
N         1.33505385035264   -0.77292249581712    2.17201018778226
N         6.68010399057890    1.06508410299130    2.33828342691488
C         7.61753419990718    1.76383981409604    1.65207233008869
N         7.82724459556877    1.80458447616039    0.33036552844394
S         9.01360424859002    2.93631205581564    0.01225371693882
N         9.11689563367236    3.38951926442591    1.61603187132187
N         8.38836907968831    2.63785299221255    2.42119535757993
H         1.03630455305681    0.43634511589344   -0.67400194166211
H         1.81713227448874   -0.65097741575034   -1.82431168098452
H         2.25428432925050    1.06213560410711   -1.83255839348558
H         4.07934518783064    0.04215740271666   -0.55721256467228
H         3.04920877096774   -2.23493584939886   -0.80090509644363
H         1.85063390033567   -1.74221229731897    0.51749064614482
H         4.86771655818863   -2.17505466713647    0.91157331463760
H         3.61382255550278   -3.21036873713557    1.44140302942730
H         3.33875608540293   -1.96277042265842    3.24259298538809
H         5.76048091392125   -1.21420217826467    3.18523122965286
H         4.64807897058828    0.12126355832097    3.75631355989584
H         5.79268891269720   -0.10906627111125    0.87603824235345
H         4.62737394700520    1.87668709717872    0.49609524848957
H         4.10132336640238    2.05069116956336    2.26656438529132
H         2.17629689097815    1.32892884754138    1.00061874757115
H         2.61584509033786    0.51441259068460    3.25678223588772
H         0.69688777177921   -0.02032196582728    1.90932635042310
H         1.06112846046706   -1.31802110976736    2.99007308098796
H         6.74439714692883    1.44945130277971    3.27900216302028
