36
 energy: -51.089781619047 gnorm: 0.131600854911 xtb: 6.4.1 (79825abcba525fcdf90b791dcacef51065a7a4e7)
C         1.86554984043069    0.46262627383874   -1.07418452431306
C         3.01156504790587    0.12123997240052   -0.10209211884594
C         3.15668355570383   -1.41125507081826   -0.09605151121517
C         4.20062998357306   -1.89170123624352    0.90871096525303
C         4.01793919745276   -1.24923145592890    2.28570824198715
C         5.13741490055560   -0.29627695985765    2.73603589239701
C         5.17385565419615    0.92887862131790    1.80063336409347
C         3.79527236518196    1.61823667765334    1.74311795138385
C         2.71164186988783    0.60090841044819    1.33955155148166
C         2.71623246152174   -0.46448701736395    2.43946703713581
N         1.48914347760598   -1.25353029023752    2.39524642504530
N         6.14235191761758    1.97524200585378    2.13020705367747
C         7.36256456348889    2.13656102141707    1.56189560995297
N         7.95726720950572    1.09599853430640    0.96514948298369
S         9.42819686155409    1.65932083599418    0.40973466867112
N         9.14257645323450    3.20908061249446    0.96185410353318
N         8.02685070040485    3.36142077880135    1.65177430435353
H         1.72799210721117    1.46689144931481   -1.48996349125089
H         1.03042599347059    0.22582478219998   -0.40509996439332
H         1.81189849493104   -0.17800405998570   -1.95850560094330
H         3.94352648116120    0.59384540488578   -0.44257444404489
H         3.39302708050986   -1.82705344389019   -1.08479553921158
H         2.16758411856621   -1.76637567531638    0.22670014270294
H         5.22837652341295   -1.72068250682952    0.56113040251590
H         4.06675800314907   -2.97279517961286    1.05759606207317
H         4.20978829490894   -2.04276014972264    3.02608850190406
H         6.12258831788247   -0.78094294845567    2.72841898678932
H         4.94153637910768    0.15523196641407    3.72025343567351
H         5.36547797559720    0.58073418516207    0.77844745023489
H         3.84437700009734    2.48917425245545    1.07452470639433
H         3.55693472223627    1.92995520210701    2.77257036450561
H         1.69164239740340    1.01175090216192    1.32791471074107
H         2.80665957921913    0.10733727029661    3.37203205500230
H         0.72933249032335   -0.67211472391794    2.75205099680463
H         1.59596035374399   -2.05017676787146    3.02400636441793
H         5.74940123629880    2.75411389434566    2.65534687793617
