36
 energy: -51.092648908945 gnorm: 0.122334267694 xtb: 6.4.1 (79825abcba525fcdf90b791dcacef51065a7a4e7)
C         1.54572194735195   -0.32934279825410   -0.68967023695124
C         2.90061660808912    0.20052899564355   -0.18138351248718
C         3.93039418054841   -0.94085724200108   -0.26158613455602
C         3.95723193071570   -1.85613888322727    0.95978174124332
C         3.81935669706259   -1.15953730763097    2.31551085858248
C         5.07619830178584   -0.39948708158206    2.77028100268844
C         5.30003318074284    0.78689663372212    1.81126921872496
C         3.98143259797387    1.57335176165439    1.66363716562383
C         2.75191175642820    0.73629180105812    1.26402894419187
C         2.55689069843928   -0.30119827563196    2.37330058523011
N         1.36145034163374   -1.13685428275141    2.42709125436704
N         6.26583365503817    1.77221339979467    2.29897862932425
C         7.35016888034395    2.13037024116857    1.56832041802770
N         7.84469589517957    1.31868814165109    0.62536619331018
S         9.34434911901641    1.92188748167781    0.20507767795852
N         9.32421567426117    3.14772036429846    1.33869959092012
N         8.17777175883447    3.17137052250786    1.99379376927602
H         0.74343682291199    0.37594576362029   -0.44625816231148
H         1.25491778267382   -1.32277812125520   -0.32953122140510
H         1.64758313925292   -0.32176544884507   -1.77819048613456
H         3.25533397730833    1.02418107748134   -0.81668581640541
H         4.97381360862829   -0.61301126380716   -0.36235413773358
H         3.63968430039422   -1.62334832802821   -1.07293724873595
H         4.95768235236619   -2.30886726748075    0.98119558884014
H         3.23930773137023   -2.68736169113037    1.00984226212261
H         3.66811321724726   -1.91432399905904    3.10423085075566
H         5.87716457768050   -1.10773622197126    3.02000474039181
H         4.76481784014830    0.05886231050220    3.72100226228192
H         5.74665378514100    0.52528023658697    0.84438008928821
H         4.16810139460189    2.26786350157053    0.83251224123077
H         3.68166948452764    2.08815789166490    2.59038537407914
H         1.87432888821810    1.39897821902728    1.26859725409189
H         2.63651327997372    0.26322128641534    3.31134554786112
H         1.26058433026391   -1.83652058529279    1.69023347170034
H         0.47115567719238   -0.64087402275717    2.47975516255891
H         5.97710495720512    2.32038649004658    3.10704142999163
