36
 energy: -51.089303065497 gnorm: 0.134464016248 xtb: 6.4.1 (79825abcba525fcdf90b791dcacef51065a7a4e7)
C         1.98514468583640    0.33551489587616   -1.11412653596763
C         3.05274775449362   -0.01299101215857   -0.05884147095414
C         3.14686056509498   -1.54943977984288   -0.06909198003653
C         4.08078993105613   -2.04051847554078    1.03400280854581
C         3.86561166841438   -1.27429932059928    2.34124096178555
C         5.06468333833460   -0.44214374061602    2.82486016465597
C         5.30520354417795    0.77403365046257    1.90814059838046
C         3.99775824398431    1.54709704953884    1.63986022705948
C         2.78558421694185    0.65516416728387    1.31249537333588
C         2.64816661214512   -0.35811828930008    2.45235408361910
N         1.36025986277707   -1.04466572567215    2.43682644903744
N         6.30511307601105    1.73030947162706    2.38479327379721
C         7.37155060377757    2.07567000504943    1.62232504202757
N         7.83099780945613    1.32680284088358    0.61205094848064
S         9.27876166312952    1.98559766601247    0.10271718538992
N         9.16539262486565    3.29495019543344    1.13272382147329
N         8.11617347821843    3.21585256369985    1.93079908045953
H         1.87526205896870    1.42557675754276   -1.11994052713361
H         0.97388038701088   -0.05149022106146   -0.94456084230732
H         2.26472082520807    0.11410242240014   -2.14762699310935
H         3.99748313441540    0.36154899361366   -0.47720871761460
H         3.50439781482085   -1.89548913308181   -1.04826424900830
H         2.16604875779588   -2.04001258191436    0.00800250755742
H         5.13716450947113   -2.13654156425423    0.74909053904530
H         3.85273837459167   -3.09727871438103    1.23426001042252
H         3.71044899357790   -2.05657260529448    3.10191825514846
H         6.05276464562446   -0.90722670094458    2.93852214797689
H         4.84260606737904    0.10121859982579    3.75564048090842
H         5.66468208664505    0.45637094441620    0.92190869581810
H         4.14348267495575    2.32613509008547    0.87839805180354
H         3.88031647267487    2.01871755294971    2.62855994583863
H         1.91015204222113    1.30715792303507    1.17889649718817
H         2.82980292514331    0.12004795646885    3.42354046373242
H         0.72924637146520   -0.24625142998506    2.35302366577041
H         1.18796008423590   -1.51700505085719    3.32485960853588
H         5.92421284986796    2.47144769592647    2.96998784435649
