36
 energy: -51.099097507312 gnorm: 0.123516236762 xtb: 6.4.1 (79825abcba525fcdf90b791dcacef51065a7a4e7)
C         1.77479387798816    0.28144375138689   -1.08223862958929
C         2.95818010236907    0.21558226268388   -0.09729273750169
C         3.47408484455967   -1.23448921536835   -0.12507627190972
C         4.48100284988219   -1.64548660083450    0.94609018122117
C         4.07144085701571   -1.12192753134757    2.32464366817832
C         5.06740220972706   -0.07824031882195    2.85654695433813
C         5.09925270752312    1.13349674732684    1.90366141604875
C         3.68382348420363    1.72224021533528    1.73349779202166
C         2.62910387690487    0.66870482004730    1.34657739802226
C         2.69148298451662   -0.46808794021432    2.37064459018796
N         1.64037929969789   -1.44624172307237    2.10855997879537
N         6.10733615130919    2.10356143402994    2.33287283275946
C         7.29013007843699    2.09968835093975    1.67037442072443
N         7.73022373113776    1.01902946080163    1.01383699051121
S         9.24936096008679    1.38219882512777    0.42241348731160
N         9.26554520982026    2.94157122757094    1.01929373600979
N         8.16057531688988    3.19110509217669    1.69812784276057
H         1.01789881573001   -0.44274439514727   -0.76129592560188
H         2.02645409198356   -0.00274859666945   -2.11038393735505
H         1.31495268725369    1.26960374882892   -0.99624236830650
H         3.72968789665120    0.83057720977286   -0.58143440716914
H         3.91174511055912   -1.47786323666366   -1.10261597892127
H         2.51241172018106   -1.76719504862162   -0.12257318529687
H         5.50119256861773   -1.33326537659658    0.68521962916308
H         4.46675386142941   -2.74438318490687    0.91328990657979
H         4.05822128613421   -1.97000395791137    3.02838254591836
H         6.06190966611267   -0.53960548822656    2.91673749830089
H         4.68961010563217    0.30901376809895    3.81478506611028
H         5.36828754328001    0.79360319384100    0.89624871908850
H         3.82847685138468    2.49725306506079    0.96773612389612
H         3.52141327523575    2.21823111363371    2.70373564326991
H         1.64672511116335    1.15602348402233    1.26424658283125
H         2.62235914577259   -0.01328007254604    3.36724344873469
H         0.70710594781739   -1.09794665903291    2.33296518492884
H         1.91719522519235   -2.23681389123166    2.69145200032811
H         5.78944435652707    3.05007823800036    2.53255819689696
