36
 energy: -51.085533987995 gnorm: 0.132994634523 xtb: 6.4.1 (79825abcba525fcdf90b791dcacef51065a7a4e7)
C         1.61077550409883   -0.00752897889759   -1.12981173269726
C         2.85519393791700   -0.10977393856297   -0.22657985472682
C         3.07123618208876   -1.61626457222587    0.00460975061905
C         4.09229833243615   -1.89412053604645    1.10480448023555
C         3.83500617637085   -1.11834185865275    2.39872605416359
C         5.09158494808030   -0.29060152055406    2.71495198108644
C         5.32735051630501    0.86080113559182    1.71695471594371
C         4.00106403682942    1.57527398451251    1.38603610851433
C         2.76454406961993    0.70757748103340    1.08570495519767
C         2.58886488856630   -0.24358805972954    2.27285426440395
N         1.43392721205697   -1.13356637122065    2.33880639593842
N         6.32394485546172    1.75390999827171    2.30910033595463
C         7.43755829814217    2.19484277115253    1.67399089412758
N         7.77609221118098    1.79699699922723    0.44124558830195
S         9.37200077282284    2.23294672220005    0.21217055448505
N         9.58501186978049    2.78464580684313    1.77371614940779
N         8.42931607840863    2.84650270727499    2.40978400973415
H         0.74703736018525   -0.29108097042572   -0.51834013729545
H         1.72316621401164   -0.46385314479121   -2.11992158016789
H         1.42247696960034    1.04978249283645   -1.33461791349651
H         3.72781240287110    0.21407660830963   -0.81095477793986
H         3.43901259510651   -2.10590431451865   -0.90717681150166
H         2.05222994799290   -2.01082350254263    0.12521866794920
H         5.13730757037307   -1.94425167117269    0.77049150818770
H         3.94506179311741   -2.95067019638099    1.37103147554162
H         3.65413925693543   -1.77996738910531    3.26139378305460
H         5.97531749140643   -0.93747113669940    2.63683478915624
H         4.94595255254661    0.14507622478463    3.71489647244441
H         5.73163975076146    0.35956913925699    0.82920227178924
H         4.24500741305137    2.15478201317841    0.48458032956379
H         3.78726875313338    2.17770482749907    2.28331766373052
H         1.90068201685109    1.38679826125136    1.12726653859527
H         2.57652392655034    0.44893364720103    3.12438169978562
H         0.59002661956937   -0.57744007441805    2.48448285356973
H         1.41946286352186   -1.76161652347329    3.14300680739763
H         6.06984777614774    2.27461412284139    3.14643263294917
