36
 energy: -51.092356395826 gnorm: 0.129062539054 xtb: 6.4.1 (79825abcba525fcdf90b791dcacef51065a7a4e7)
C         1.76377059958356    0.44950134079003   -1.05379696201151
C         2.94430026572108    0.16632747297896   -0.10457550072231
C         3.15953833039071   -1.35494674231805   -0.00952669943864
C         4.26921938200678   -1.81848137905647    0.93065621594308
C         4.02191422330465   -1.25747943856553    2.33293359538718
C         5.07078773219359   -0.22078793281890    2.76799476302104
C         5.07249137170031    0.93703815724362    1.74978659474239
C         3.70883947423258    1.65477822395219    1.81549155834259
C         2.65813889376665    0.63192143988527    1.34446077748185
C         2.70073634548431   -0.49208205387055    2.38354892782097
N         1.59216488385444   -1.40721869125112    2.13079135014629
N         6.12123683630224    1.91037930513665    2.05673956191380
C         7.37179152734719    1.97176159279192    1.53686862570935
N         7.96658320806866    1.20235265197790    0.61666202585709
S         9.47796558001881    1.85459361158449    0.33424969284422
N         9.33155258806342    3.12258138206101    1.41079068221537
N         8.12302384050019    3.07708020660420    1.94128975730851
H         0.92121351035387   -0.19407128531252   -0.77765450864022
H         1.97207014670382    0.27330946598140   -2.11528113623331
H         1.36555347632663    1.45825197849921   -0.91539633228544
H         3.85859793511334    0.62332510988460   -0.50836895825092
H         3.44366723519104   -1.74096074973847   -0.99777022238442
H         2.20375467261583   -1.86582433199119    0.17507736219091
H         5.24583560190917   -1.50052446373674    0.54149459267152
H         4.27174381539480   -2.91315048368354    1.03334885904236
H         4.05084376421373   -2.03085150543376    3.11760902338569
H         6.06333836763037   -0.69020732887113    2.77179917138724
H         4.89705040119702    0.17708585624515    3.77914493470046
H         5.24856366161299    0.56920393625076    0.73170789071126
H         3.55521209691090    2.55907150860950    1.21000602081868
H         3.50425163828547    1.90724089030925    2.86817953027423
H         1.76735891794872    1.27587973417034    1.37844088139079
H         2.58150710648398   -0.05941179291523    3.38525668580460
H         0.84887022846688   -0.89329380638700    2.60624962738619
H         1.72075283823822   -2.34978946468225    2.50014212283512
H         5.97077343604336    2.48830872942367    2.88147093527915
