36
 energy: -51.091996344313 gnorm: 0.127804962265 xtb: 6.4.1 (79825abcba525fcdf90b791dcacef51065a7a4e7)
C         2.28952221168369    0.62080469918501   -1.15682264453378
C         3.24330833065516    0.04870898081328   -0.09011856816727
C         3.18542682625471   -1.48834260898444   -0.02880783056764
C         3.96554734504763   -2.03825886640316    1.16249579283339
C         3.84555217099760   -1.27094585972532    2.48124394216025
C         5.09879390674089   -0.46155719386076    2.85328985974749
C         5.31189350474943    0.75468979000513    1.92990272740081
C         3.98644379238227    1.52335696249962    1.75284848106313
C         2.82490380797190    0.62709852023637    1.28420865378186
C         2.59064337541611   -0.40430460385051    2.39156231377656
N         1.41864903574486   -1.19329762686287    2.02521363389581
N         6.34443083796638    1.60070321651430    2.52957605535294
C         7.36065453408329    1.96174180093173    1.70807670049374
N         7.63803063185559    1.47340597365615    0.49270099878841
S         9.05719598913409    2.17011925036585   -0.04582659672362
N         9.18472838648606    3.16232687457942    1.29112133506255
N         8.17177788940825    3.01858177348581    2.12617223425487
H         1.31702479019169    0.17868868716842   -0.91366628306855
H         2.52780244923757    0.36774612724052   -2.19622862992662
H         2.17409269746504    1.70795513690629   -1.14736767804106
H         4.29337149115656    0.31960127905249   -0.26850273205901
H         3.68497225112386   -1.92358050276841   -0.90481218350015
H         2.14108427719394   -1.82635423774758   -0.08958379376378
H         5.01477772318679   -2.22273097644974    0.89527261275642
H         3.50485215056711   -3.02732052187368    1.29803013090323
H         3.67643208401303   -2.02978365166213    3.26240996424083
H         5.97440374462070   -1.12399775530655    2.85567425187633
H         5.04080427334785   -0.21594524595086    3.92437567239922
H         5.72681287685224    0.49659241496203    0.94805989623785
H         4.06310176282362    2.37419903334701    1.06136330603211
H         3.74565361983016    1.96263635597459    2.73407181102700
H         1.86818067614753    1.16922679405548    1.27402849068108
H         2.48837300593945    0.18827870507864    3.30983424789343
H         0.56544110351932   -0.63236581940908    2.01759643061571
H         1.34600010460790   -1.85021781471792    2.80275624518348
H         6.14462262258453    2.48928702533533    2.98489901671740
