36
 energy: -51.080387777638 gnorm: 0.128383538447 xtb: 6.4.1 (79825abcba525fcdf90b791dcacef51065a7a4e7)
C         0.93837852684578   -0.75611935031485   -0.22504525032600
C         2.45301067886980   -0.47309148864246   -0.19967296239296
C         3.10608535637348   -1.82809785528510    0.12757023978599
C         3.41857891271939   -2.14610127889989    1.58750924029581
C         4.16707272136963   -0.98085369179907    2.23883091187325
C         5.48721568471299   -0.76903338333915    1.47955638724012
C         5.66576727234316    0.59191031263186    0.77722911578839
C         4.38421715711799    1.12059929699376    0.10111398482133
C         3.03093692992595    0.66453337727636    0.67792777847128
C         3.25341311495728    0.23886386781933    2.13196090486974
N         2.11980929154317    0.05995764987411    3.03375192073486
N         6.02650895308475    1.59105306694657    1.78373762510467
C         7.27137840636617    2.12746616572915    1.80568452813002
N         7.98876182798414    1.98334801644622    0.68446266654406
S         9.38843004550186    2.83654144508033    1.00452755245972
N         9.02896805980756    3.23537528673504    2.58563124950437
N         7.82694780398659    2.78944586490146    2.90238922948253
H         0.36939235594818    0.17628695932569   -0.30999247356109
H         0.52845666713136   -1.33843973131444    0.60805016100381
H         0.66357087638634   -1.27300143394549   -1.14842118708928
H         2.68245063990428   -0.26958549099472   -1.25503016387046
H         4.06171555203481   -1.88835772216470   -0.41048271178779
H         2.50946957097789   -2.67233212023984   -0.24648199302874
H         4.10228685058814   -3.00550797680468    1.60442632574470
H         2.57094595390804   -2.49678766924663    2.19363629684281
H         4.32570071844838   -1.23843077391788    3.29861767560051
H         5.48508978493632   -1.39974770273336    0.58082353701869
H         6.40352075694042   -0.99330250209950    2.04612610436844
H         6.51248666576904    0.55137635382713    0.08137641957538
H         4.31256938095774    0.99989864708947   -0.98895866735457
H         4.44268647357292    2.20631697394253    0.27872029326142
H         2.28700027552068    1.47307454764841    0.72424518498002
H         3.74952627789814    1.16138168045416    2.46009227819228
H         1.55459949921373   -0.73525250334483    2.73234688195680
H         1.48941924884422    0.85354078500867    3.15303607455195
H         5.35577922409230    1.60916476832760    2.54964694847449
