36
 energy: -51.093283712421 gnorm: 0.122970989442 xtb: 6.4.1 (79825abcba525fcdf90b791dcacef51065a7a4e7)
C         1.60225528601377    0.24738316019081   -1.00130063307300
C         2.89445053841338    0.06910633471762   -0.18074722845507
C         3.21681930192925   -1.43424610820847   -0.10560265202966
C         4.01685931519090   -1.97237027958725    1.07784934335830
C         3.88315183545646   -1.25676703498577    2.42406594317292
C         5.05603300607457   -0.29523455548536    2.67694565301280
C         5.22290201637978    0.89802050537786    1.71485985123995
C         3.90855166072218    1.68097210158763    1.51868559663758
C         2.76965099623050    0.68364264016650    1.23528326551253
C         2.68953124912302   -0.30348795296793    2.40321158176004
N         1.54952766777249   -1.20014250688454    2.23982685152708
N         6.24870892202000    1.76863658712732    2.29038393314810
C         7.41690312872307    2.02729987752159    1.65293888993286
N         7.77946900817073    1.56490142874553    0.44990892768745
S         9.32306731561109    2.14489606734204    0.18465028527689
N         9.50743061688756    2.95256115638181    1.63442872621421
N         8.39273517900129    2.77141513883734    2.31903193524446
H         0.78971417662995   -0.04469765340502   -0.32690566834015
H         1.59788773933124   -0.42677042724434   -1.86540640871184
H         1.42189401904025    1.26295542603600   -1.36378130569837
H         3.75180773096961    0.52332947811778   -0.69694117339208
H         3.84459071133433   -1.75076924203888   -0.94944947465798
H         2.32716243774720   -2.03855555249237   -0.33345725033254
H         5.06147131686030   -1.80226023895111    0.78430046260275
H         3.76850913761495   -3.03713141626178    1.19386010074604
H         3.89628593164880   -1.95470442380896    3.27692447584933
H         6.00165950148528   -0.85299784313514    2.66223366557057
H         5.01159470393872    0.04162927979489    3.72358831640691
H         5.59615786760981    0.49138164800505    0.76717181930185
H         3.95006985445672    2.38557958492659    0.67621009478885
H         3.71236777965025    2.28127272946212    2.42140181421184
H         1.85704992629854    1.29706980561277    1.22141675999586
H         2.66806969034706    0.32709555731805    3.30139943308173
H         0.60624285197573   -0.83697262750666    2.38469814261093
H         1.67623803659175   -2.01950053190708    2.83479863729388
H         6.18515230276140    2.05847112122197    3.26443730590724
