36
 energy: -51.094511852732 gnorm: 0.122886071867 xtb: 6.4.1 (79825abcba525fcdf90b791dcacef51065a7a4e7)
C         2.13638479902846    0.45138342186178   -1.19760900021495
C         3.14867249535378   -0.14383243962603   -0.19968577877578
C         3.00066404999006   -1.66179734846390    0.00891167196669
C         3.79032874162769   -2.20873142017879    1.19528978909180
C         3.73273570645383   -1.33393892478200    2.44975617126137
C         5.03050757070425   -0.55470088816373    2.71942136212246
C         5.48317311201643    0.58832042654286    1.78887950155346
C         4.22189399259378    1.42426854004351    1.48991444059193
C         2.98088747965925    0.57276490303536    1.16292514909571
C         2.62480928545942   -0.28433649570945    2.38091036311880
N         1.27671132353247   -0.83535511417555    2.28446121786176
N         6.46945806826381    1.41313084319711    2.48774280998413
C         7.44761158259995    1.97977159135533    1.73937484794764
N         7.84929585432863    1.52054629181565    0.54760752804531
S         9.07150183957446    2.52943080858053    0.02052476823889
N         9.16313295589450    3.39793320379499    1.44371751035924
N         8.22978781827892    2.99798463676163    2.28808079811177
H         1.12204764563221    0.19609752911874   -0.87158435735848
H         2.42410970780002    0.10439919540452   -2.19660712092901
H         2.20115424797212    1.53448788062440   -1.06344826982233
H         4.18834824162385    0.04298168292491   -0.50301895513709
H         3.37085124698780   -2.12126569091937   -0.91748541656241
H         1.94645341766633   -1.93251764199915    0.16366118326508
H         4.84599601835119   -2.33707984067458    0.92067030055406
H         3.38931197342147   -3.19871364256730    1.45600672563663
H         3.47550027215642   -1.92628678468234    3.34284670398488
H         5.80991560805094   -1.31578747870363    2.58232246891785
H         5.03369311930530   -0.25393503947177    3.77793098168953
H         6.02502703108293    0.22481819138928    0.90737615986256
H         4.27775904698323    2.19020567331042    0.70367031751719
H         4.03020507681090    1.95613614666420    2.43549242641100
H         2.05932839357067    1.16410797923245    1.06110139566505
H         2.74688249674839    0.28766789629153    3.30975193048546
H         0.55765262629850   -0.12103002002042    2.16052358526766
H         1.06790263501204   -1.44081097889631    3.07895264773368
H         6.11825217126428    2.08784655386255    3.16467458845239
