36
 energy: -51.087625060871 gnorm: 0.122519358530 xtb: 6.4.1 (79825abcba525fcdf90b791dcacef51065a7a4e7)
C         0.97650584555012   -0.48478461483725    0.00170856793734
C         2.48446213097837   -0.37766123244786   -0.29737589385396
C         3.10170634230650   -1.77892654505110   -0.13893971216381
C         3.13730652978584   -2.18118227206716    1.33317552132111
C         3.91586376186391   -1.15624258058003    2.16119249797792
C         5.36711733027982   -1.03651150930754    1.66756242321576
C         5.74185810709883    0.32669591266584    1.05230079594984
C         4.62725060283572    1.00313809575130    0.22823135096992
C         3.19338849396332    0.62598995525709    0.64521620117254
C         3.22575592065929    0.20601432378982    2.11745101122749
N         2.12178227084333    0.05664132175067    3.06043668993199
N         6.35020597621468    1.14397727195503    2.10275030895582
C         7.39078868829389    1.97864022454663    1.86099428543336
N         8.28727086735974    1.80125124010717    0.88252594414250
S         9.35307322095418    3.08709588709220    0.89350552110389
N         8.56506455847881    3.85718216442264    2.14816871295438
N         7.58732502744545    3.11937924078444    2.64184230503230
H         0.41867419727776    0.44344342134642   -0.16430163505116
H         0.74102281259073   -0.81672060067561    1.01932694846386
H         0.45809232346385   -1.16269098394623   -0.68166529101606
H         2.69471733010151   -0.08040476745131   -1.33432698085980
H         4.12646879084477   -1.85668446528346   -0.52646639798173
H         2.53615281936229   -2.59679930148499   -0.60780038957533
H         3.57182661950364   -3.18775452561139    1.39895694212522
H         2.09727494451298   -2.21434619348623    1.68826290871090
H         3.92071643433474   -1.49333750694526    3.21047808991573
H         5.52640829138027   -1.71443362883019    0.81869624151196
H         6.14954050646015   -1.27217226855058    2.40457724645299
H         6.63443342627312    0.10342078782821    0.45543797949700
H         4.79479695380345    0.67786401847526   -0.80814957882586
H         4.81427240254591    2.08884899726272    0.22778048823584
H         2.63974982850975    1.56950826819441    0.53304090021146
H         3.85502785093239    0.99018384502996    2.55782878594071
H         1.79961870583357   -0.91229863684948    3.05475428685829
H         1.35905418288444    0.67006088597369    2.77172088508504
H         5.87228465114440    1.35470250776859    2.97682671224201
