36
 energy: -51.085884433559 gnorm: 0.127435524713 xtb: 6.4.1 (79825abcba525fcdf90b791dcacef51065a7a4e7)
C         0.87792440705528   -0.87558851650554    0.12535533179459
C         2.35771290386557   -0.62334521601049   -0.22315375274966
C         3.17279474065856   -1.92112147614475   -0.07804866891613
C         3.34863153024125   -2.24213791190015    1.40391972557086
C         4.00696578183369   -1.02852803660470    2.06423190526204
C         5.43390851487483   -0.69500082767517    1.59868122247726
C         5.59564865180051    0.63278040592401    0.83177218712337
C         4.30725263332493    1.11359180623190    0.13329466299864
C         2.94592413804440    0.55632687050736    0.58971388418644
C         3.15752557701427    0.24122649007838    2.07323652983847
N         1.96434297170396    0.01860953931996    2.88382228914320
N         6.07714453621462    1.66584795256647    1.74960312538398
C         7.32933397763081    2.18449190735770    1.71876556229656
N         8.15872344437759    2.13288091420014    0.66900508001004
S         9.60337711284042    2.86525108310355    1.07651143943391
N         9.06288439830975    3.30277022660520    2.59460725125630
N         7.86120232388813    2.81563265810684    2.84500411732933
H         0.30109357745812    0.04819495532202    0.00605255956762
H         0.83957915185539   -1.30215061526605    1.13419396152234
H         0.52872525913269   -1.64007703278890   -0.57387764253612
H         2.51190706416997   -0.21454909792674   -1.23159125980459
H         4.05227755164039   -1.69904572325634   -0.69736580111126
H         2.62880219080265   -2.74054372956493   -0.56918643696185
H         3.94241426668829   -3.15756799274252    1.52934903492183
H         2.36512705647136   -2.50148558276346    1.82142470918780
H         4.06713660722556   -1.37449401719231    3.10890597867598
H         5.77101725193947   -1.53811963922403    0.98140147736222
H         6.16817767469327   -0.71137197263606    2.41812846165114
H         6.45429745172797    0.46719466239806    0.16988740932789
H         4.56665676425067    0.97209300380889   -0.92531204023115
H         4.28572878728388    2.21401797113813    0.18171602897513
H         2.24344306458392    1.39205386801108    0.45777923830561
H         3.80051208707419    1.04230215311949    2.46012648775727
H         1.08362645795038    0.25110788125611    2.42235801294843
H         1.97612763225093    0.59926002877766    3.72292936270450
H         5.55919938747215    1.75824766421029    2.62139365743198
