36
 energy: -51.091430388654 gnorm: 0.124533309667 xtb: 6.4.1 (79825abcba525fcdf90b791dcacef51065a7a4e7)
C         2.15982236012286   -0.21753674300523   -1.01391715191148
C         3.39356477614464    0.08281652260252   -0.14068944904380
C         4.23067445470159   -1.18482276476488    0.10825806902006
C         3.95197221608525   -1.87644690789092    1.44024205221977
C         3.59519520311164   -0.98563112535378    2.63247616633496
C         4.79157619803054   -0.20732880833559    3.20436870454033
C         5.24351229733416    0.78850321262520    2.11745364873237
C         4.05514648269707    1.70176840712143    1.75310799754162
C         2.93650224502413    0.84984049568586    1.12467222559890
C         2.44496222333080   -0.05137854833851    2.26093589225002
N         1.23416190933079   -0.83179763593615    2.02598756111589
N         6.45036666024496    1.46611176976205    2.59266868935028
C         7.41005643769220    1.78270362275879    1.68896201500146
N         7.41834580681899    1.26631443730356    0.45372075903908
S         8.70330585809201    2.02926739037520   -0.29208895842686
N         9.16336542913381    2.97054900665048    1.00810501289690
N         8.40683093432929    2.68997678060121    2.05356000795638
H         1.24564496700040   -0.51814288015867   -0.49022024162226
H         2.54140543929598   -1.03373831519359   -1.63792858721815
H         1.85501811372813    0.65305954309506   -1.60082934655912
H         3.99307377665352    0.81728915793566   -0.69654473406534
H         5.23212024472904   -0.78096824177361   -0.09266263476278
H         4.17816767170631   -1.89377973661704   -0.73032406044056
H         4.74441457512758   -2.56714223697594    1.75851496561531
H         3.09485357880523   -2.55024369149360    1.29812200680509
H         3.26904511802733   -1.68745368925940    3.41715952692784
H         5.62546462877027   -0.87157921868657    3.46690871861561
H         4.55776381609587    0.37710319478322    4.10696709758959
H         5.63960802835783    0.20055416506410    1.28066706574786
H         4.33786528611965    2.42736462581881    0.97751749043403
H         3.68970382184310    2.26196529195991    2.62853739047119
H         2.04562300009964    1.44307726730833    0.87222389830243
H         2.27355846341884    0.56015819301957    3.15619067415424
H         1.49162152471040   -1.57248183214240    1.37194799029697
H         0.48430229133349   -0.22657717649563    1.69011071685764
H         6.59920025712051    1.81470629164366    3.53773688912625
