36
 energy: -51.088895602343 gnorm: 0.125137147356 xtb: 6.4.1 (79825abcba525fcdf90b791dcacef51065a7a4e7)
C         1.41373624160338   -0.00512743542195   -0.70065093586637
C         2.79951138728489    0.19722679269034   -0.05758072424617
C         3.78326994360709   -0.97126803017214   -0.24856791903022
C         4.04088524963465   -1.89973199464279    0.93540400205006
C         3.87781459085281   -1.34230732679875    2.35136684500692
C         5.06511760350111   -0.45568826927251    2.76168566768656
C         5.26535774517456    0.75643122842915    1.83002992678686
C         3.92136161107730    1.51307539042096    1.81666457147710
C         2.72284317676638    0.62721894977485    1.42821913379821
C         2.57675227353998   -0.54336387110540    2.40458800393139
N         1.37555100315710   -1.36726810706398    2.31190777319062
N         6.33761136928007    1.65484748955826    2.25968179452055
C         7.46711418810671    1.98656438931499    1.58729199385832
N         7.62524237190696    2.06778423974948    0.26028545022685
S         9.18582599247283    2.56662184826456   -0.06404693422809
N         9.61163416835315    2.71568106938842    1.54363431708499
N         8.59107131778865    2.38486128418204    2.31373244131251
H         1.41755205687504   -0.45998266403503   -1.69736304686227
H         0.86726118086481    0.94470455757404   -0.68154169030826
H         0.92400104226234   -0.76551063002395   -0.08641456000645
H         3.17114398162028    1.05925237676850   -0.62910275576888
H         4.78524109080657   -0.56083576222308   -0.43285178905619
H         3.62039904998204   -1.59744864822974   -1.13736933522829
H         4.98846502588179   -2.43273192009314    0.77943498206857
H         3.27667576878082   -2.69001157713301    0.91823683343292
H         3.78666116271796   -2.18666412448976    3.05379802036940
H         6.04315253599998   -0.95261122406371    2.80686454188207
H         4.92623921776370   -0.00113770196955    3.75416212976789
H         5.66239333681664    0.32849788097555    0.90157766875620
H         3.96416384046028    2.48614261644642    1.30748023953649
H         3.82216266745890    1.83290432441635    2.86624288589101
H         1.86857857471653    1.31798066819017    1.47727273958484
H         2.50025412209272   -0.13939852382186    3.42232949163692
H         1.35257928123377   -1.92368653888262    1.45602392465784
H         0.60552125871093   -0.70448658201784    2.40766467623332
H         6.24953619170951    1.81977280813664    3.26061433905660
