36
 energy: -51.084429018673 gnorm: 0.138432461048 xtb: 6.4.1 (79825abcba525fcdf90b791dcacef51065a7a4e7)
C         1.98345252915309    0.28023319093554   -1.19984182697496
C         3.05401969920597   -0.23543591387351   -0.21860261530840
C         2.95668393180842   -1.73707903085960    0.10579001821715
C         3.79684644925244   -2.24177708240733    1.27609215049852
C         3.73404411475034   -1.24837496354908    2.43862081226745
C         5.04259041995854   -0.46896084203890    2.64924664935094
C         5.34094374499712    0.71514752793340    1.70787285673606
C         4.08033510363320    1.51470369555284    1.31981339263350
C         2.86187841626716    0.60740475081958    1.06633842638763
C         2.66473606234817   -0.15900468418781    2.37731286676958
N         1.32933804973530   -0.74620536494584    2.33041287281769
N         6.36631036304080    1.54655084253170    2.33943594759410
C         7.53521393529962    1.90079727535626    1.75113799154945
N         7.78844124344163    1.72016386522057    0.44891107775767
S         9.18424646149951    2.55979039749596    0.07984910033733
N         9.33688828985610    3.15877493783948    1.63100616617346
N         8.41184612951139    2.72009589473457    2.46521181068320
H         0.97176589790099    0.10661288406798   -0.81684186694883
H         2.15874893710402   -0.09746018417000   -2.21364644699307
H         1.98057688337877    1.37352876387057   -1.20228617369038
H         4.05388283053793   -0.18007421692717   -0.67142156371163
H         3.27532590835362   -2.31002244809982   -0.77543890859771
H         1.90351793480234   -1.97748850173665    0.30985281270009
H         4.83588412219286   -2.17573658580527    0.92628939952324
H         3.61993589873569   -3.28104083900330    1.58831974554912
H         3.59225428957417   -1.86760808810224    3.33923324123044
H         5.88795829702652   -1.16784372787791    2.69865961730334
H         5.09354544626041    0.05642931894482    3.61479396960996
H         5.92796019869580    0.28414010861214    0.88785336106874
H         4.39643682240628    2.01185567482653    0.39197717505898
H         3.90764982089375    2.11220904087094    2.22916078427305
H         1.95681559766815    1.21103429059696    0.90565693748499
H         2.89126018962165    0.46329625308787    3.25267903688172
H         0.58638832640948   -0.08159981070481    2.55175301436317
H         1.27354964191269   -1.52513826523992    2.98733425503874
H         6.25944918432101    1.97931537169381    3.25492435381317
