36
 energy: -51.093570356880 gnorm: 0.116207614341 xtb: 6.4.1 (79825abcba525fcdf90b791dcacef51065a7a4e7)
C         1.41691259533273   -0.05500065863313   -0.86744773332950
C         2.82043457186187   -0.08540734324883   -0.23179012429785
C         3.30668149977993   -1.53725311593372   -0.07258996068015
C         4.30011784693270   -1.70174686899737    1.07467911255847
C         3.93011111070014   -1.07689721594346    2.42186981280286
C         5.06586344952498   -0.12782808424498    2.83837614970849
C         5.24751657033773    1.05894088372662    1.87096022083174
C         3.89032347422702    1.66859382276849    1.46430975081048
C         2.76099554284981    0.68247977006765    1.11178293032846
C         2.64850386558871   -0.25167225070648    2.31992538006587
N         1.50949432833495   -1.16010899189619    2.40762994016577
N         6.22761629199404    2.03712645675314    2.34428641315612
C         7.43784568249346    2.14200554020537    1.74240118357282
N         7.60626374159484    1.71914727009416    0.48328493965004
S         9.22044317802486    1.89510247850375    0.09223994926068
N         9.68342182680090    2.57138547610675    1.54704657941411
N         8.62019142488296    2.59639086989024    2.32996241345216
H         1.05750932763173    0.94979414853457   -1.11555962366070
H         0.67023464504903   -0.62124158143942   -0.29909556789755
H         1.45879466092447   -0.51656909099142   -1.85765474902476
H         3.55286320373139    0.40956401581578   -0.88477394513485
H         3.86354953271340   -1.83257864992933   -0.97205765094037
H         2.43305929479513   -2.20222983845307   -0.01613497026296
H         5.28419490726477   -1.27629620624870    0.83612789928819
H         4.47159621840506   -2.77274881669403    1.25468631787335
H         3.74182209685146   -1.80857842371722    3.22427036878382
H         6.06000457625940   -0.58065281162710    2.94864395855823
H         4.87530722823529    0.32681909665125    3.82219379023569
H         5.65792808255120    0.69428702869125    0.92155110127889
H         4.03095517797049    2.48198859293202    0.73865686521460
H         3.43576359910213    2.15665892031091    2.34118677831544
H         1.89962478219535    1.36611197211720    1.11543199004438
H         2.65258335396462    0.35059417735165    3.23758332306535
H         1.66164930404944   -1.90729990651370    1.72849747758708
H         0.68021559689063   -0.65128853425185    2.09974514685399
H         6.02174385638210    2.55096373346998    3.19892743914883
