36
 energy: -51.088708326953 gnorm: 0.130211057159 xtb: 6.4.1 (79825abcba525fcdf90b791dcacef51065a7a4e7)
C         1.70187077901067    0.37810929554174   -1.07563921372918
C         2.92061665617237    0.05163428797496   -0.19080497076406
C         3.22461724668211   -1.45432512295525   -0.09433327353444
C         4.26195182696221   -1.82536893013550    0.96229520430199
C         3.97464068829821   -1.21479352289145    2.33594538357704
C         5.09453422506034   -0.22419562299466    2.69468954903410
C         5.17999264324110    0.94584500757079    1.69418277629142
C         3.80589282627748    1.64365613596147    1.63154299179239
C         2.72930912047879    0.61452217473303    1.23920579959371
C         2.67441334873636   -0.41356916656293    2.37274766773370
N         1.51937564051649   -1.30581409218380    2.36386017782073
N         6.18348019182449    1.84224856651011    2.26946841283282
C         7.38421237134105    2.02472836853494    1.66708649676962
N         7.65955714727890    1.59665305989849    0.42874718740769
S         9.29234684980567    1.87974655375456    0.22064256968932
N         9.45054726368960    2.86017181331191    1.56299468123707
N         8.30769873205731    2.91248390351570    2.22269312641332
H         0.87940110152704   -0.29673391041267   -0.81396556539796
H         1.88237298695373    0.27950355420342   -2.15215060855177
H         1.52774902829594    1.43425492995696   -0.85304659865520
H         3.79938103910115    0.55692346373405   -0.61541327919812
H         3.72163021221541   -1.70550665037213   -1.04103663340725
H         2.35440743829881   -2.09994499566121    0.09142685496096
H         5.33021025848926   -1.65808199678019    0.76952176009837
H         4.24823184081019   -2.91664845251257    1.09561195749957
H         3.90966680365521   -1.99821398842433    3.10840091633167
H         6.01194272143742   -0.78312644966131    2.92158991348796
H         4.89254655491202    0.30668862064707    3.63717338625308
H         5.53654511482474    0.65834246677209    0.69768875913292
H         3.93095184298956    2.49019211803339    0.94183471098444
H         3.59065775579643    2.00788014622367    2.64877466027044
H         1.81049612410159    1.21035068804431    1.13872228387235
H         2.81329077215369    0.19512551649899    3.27554411498873
H         0.63322703501688   -0.79916546104001    2.33713738197928
H         1.45860604074283   -1.90490245626236    3.18775015677365
H         6.06414629321209    2.33733617267107    3.15121166859035
