36
 energy: -51.089344331276 gnorm: 0.127204616138 xtb: 6.4.1 (79825abcba525fcdf90b791dcacef51065a7a4e7)
C         1.81874548915265    0.13505040849662   -1.21822539110414
C         2.98426951539975   -0.14852690077980   -0.25075613649266
C         3.02317288538506   -1.67428230785028   -0.05027200157718
C         3.99802678541307   -1.97445656559574    1.08540206504283
C         3.84387324288730   -1.23157027031059    2.41454520485787
C         5.08794485499399   -0.41882019227362    2.80934421243460
C         5.31356216809895    0.71662315521553    1.79092521424255
C         4.07975474735241    1.52484743443893    1.33980750852884
C         2.86531337998020    0.61004372715614    1.09415732483384
C         2.68409140001906   -0.23892685105411    2.35562872927852
N         1.35680145945875   -0.84226300980505    2.42329714098582
N         6.29040831121056    1.61355663705601    2.40960292987593
C         7.43288162397125    1.99125290624991    1.78508641159631
N         7.54698752637164    2.12456409641971    0.45777505597693
S         9.12244698633689    2.52987647847918    0.07948808456357
N         9.53132624099502    2.76332370055025    1.68151505097209
N         8.56735306429538    2.38150738705688    2.49944743066472
H         0.93096402671072   -0.33020429969485   -0.77581725542654
H         1.92578819122617   -0.29939314702557   -2.21871606339806
H         1.78196696034057    1.21343115080035   -1.39444052568086
H         3.90371891669210    0.16890448921334   -0.76230899713763
H         3.39900442559814   -2.10163804766696   -0.98967555026723
H         2.03804884515190   -2.01362822524230    0.30040155317019
H         5.04716188781715   -1.85796542527748    0.78197504239570
H         4.04418824216688   -3.05349980869258    1.29128405787797
H         3.76640086876672   -1.94017221840475    3.25510341355034
H         5.93327182652705   -1.11222593304225    2.91002484593018
H         4.86917213165962    0.05764762781095    3.77683054018451
H         5.84164229835481    0.32487242134523    0.91317214329113
H         4.48892032618246    2.06717763039925    0.47585037032141
H         3.75433798488722    2.27641217714905    2.07669277789556
H         1.94157441689423    1.19676548062197    0.98557648246161
H         2.96820955276054    0.39681506228343    3.20412545151424
H         0.64676138350078   -0.16435774472836    2.14230988200552
H         1.07130453986890   -1.22515810401339    3.32511606310911
H         6.26268951198714    1.73472498545242    3.42023312734296
