36
 energy: -51.089595955172 gnorm: 0.127871878112 xtb: 6.4.1 (79825abcba525fcdf90b791dcacef51065a7a4e7)
C         2.42050007175520    0.51304018561601   -1.20063415268555
C         3.39905931293236    0.00093332415672   -0.12591211946693
C         3.46472234624403   -1.53241763322959   -0.00691597911049
C         4.11676496413861   -1.99875333948683    1.29214971751067
C         3.79586350024793   -1.16937527500909    2.53770945439605
C         4.98334518177618   -0.32302775427051    3.02528118037471
C         5.27734027192094    0.81652411629931    2.02913842078916
C         3.99245246945678    1.61022601182916    1.71590523035245
C         2.91875257921569    0.63161412252009    1.20447101926561
C         2.56333089290998   -0.28021932584945    2.38223910402945
N         1.32974225835566   -1.05708864326329    2.45312778882853
N         6.27276687669486    1.76204476842524    2.53569218963829
C         7.36945184495794    2.02778960060974    1.78430521912325
N         7.52115678449110    1.24143426316927    0.71137541623208
S         8.81984055047475    1.84045352755379   -0.15120679357408
N         9.03017622981366    3.15864613980106    0.85193695993586
N         8.17026907818922    3.16947495499822    1.85417634616161
H         2.62141743805081    1.58794688049740   -1.13317576498712
H         1.37725935317009    0.22823442621925   -1.02254596163796
H         2.68885652887652    0.20575955521452   -2.21496786326608
H         4.42306298697500    0.34916282317985   -0.32081951006723
H         3.98319257037903   -1.87951493510881   -0.91083708951914
H         2.45206538179782   -1.95358343401195   -0.08269322319502
H         5.20223373316386   -2.01530895780754    1.12539825213340
H         3.82754526935460   -3.05636846333030    1.37372660716568
H         3.65643208084992   -1.95736349342421    3.29552883591521
H         5.78512779144624   -1.03127594870787    3.27237411591019
H         4.73581323379106    0.02879045444527    4.03813099042831
H         5.75900303478927    0.39105903057380    1.14044942121434
H         4.27545773617830    2.26882388541759    0.88276820703130
H         3.73094460112119    2.22439210553769    2.59235212393839
H         2.00084846028364    1.17525321078122    0.93757321869421
H         2.53604672383585    0.36926047093954    3.26669889997887
H         1.25753882250325   -1.64220049715896    1.61940297189666
H         0.52687207747142   -0.43297538776457    2.53843089843886
H         6.08048140482811    2.16819911256307    3.44941448087704
