36
 energy: -51.083768715592 gnorm: 0.135825275705 xtb: 6.4.1 (79825abcba525fcdf90b791dcacef51065a7a4e7)
C         2.43848721251485    0.31868194334763   -1.43966767496858
C         3.33867750128095   -0.15402208920684   -0.28162301385554
C         3.07273474307695   -1.62229409669483    0.09664763614629
C         3.83810446807916   -2.13278232778527    1.31476554525031
C         3.69227017972350   -1.28103776862493    2.57790781861934
C         4.94230231217010   -0.51515124141427    3.04156781836956
C         5.39799683262546    0.55434187560271    2.02873072432666
C         4.26176877530339    1.48341328082343    1.55457196199671
C         3.09741566319687    0.61654564366107    1.03988758867145
C         2.66132695877629   -0.19932442392009    2.26016838824524
N         1.31714178564336   -0.75776126768037    2.15243427448997
N         6.53388774310373    1.26178676287425    2.62097537503024
C         7.41367211031773    1.91458978937913    1.82238393294692
N         7.20751420188203    2.12273124313084    0.51596764842357
S         8.53969957056003    2.90139695044814   -0.12310474698283
N         9.35057696160774    2.89729107843786    1.33656345153365
N         8.70360742725620    2.21541648658778    2.26420498920872
H         1.35242706208741    0.25522372801434   -1.31009443130924
H         2.62252521885146   -0.28319880793243   -2.33691374031448
H         2.69289626503025    1.35752776483751   -1.66634994217299
H         4.41477761598490   -0.14269699240160   -0.50459499083508
H         3.14901173487828   -2.17178328880181   -0.85130001446829
H         2.03198531518661   -1.73384391308133    0.43279378981535
H         4.89382732724768   -2.23738547775728    1.03045932363093
H         3.51197312570487   -3.17370855044569    1.45247370258935
H         3.36278732006013   -1.81467231792645    3.48418150775660
H         5.77434708217283   -1.21153053587567    3.20974384305166
H         4.86768027480244   -0.01577204656423    4.01930236340143
H         5.82763837756584    0.08275907296922    1.13665140544149
H         4.63406133937049    1.99591999212696    0.65640963439461
H         3.88997773750389    2.16060001255924    2.34002411163944
H         2.21908046883629    1.25730515144974    0.87471969659424
H         2.57628923767443    0.56483165611470    3.04354037162764
H         0.72834522956765   -0.00297916470495    2.50780576333415
H         1.27024080351149   -1.54005841798739    2.80604423817835
H         7.02538636090297    0.99422881436070    3.47166059601437
