36
 energy: -51.089987561073 gnorm: 0.121841254574 xtb: 6.4.1 (79825abcba525fcdf90b791dcacef51065a7a4e7)
C         1.14353765713562   -0.05646275076766   -0.32173284969892
C         2.66451827420101   -0.30202515366512   -0.28743829742654
C         3.09926575367212   -1.76908930360902   -0.11905106242238
C         3.25623859715496   -2.23731460147133    1.32536052402230
C         3.88989505577053   -1.26057594308036    2.31870128331793
C         5.40494270918626   -1.19387275472808    2.06507885557079
C         5.91148583328944    0.11681183941665    1.43038843787030
C         4.86675425316704    0.67991941501655    0.44526908039586
C         3.36065509368301    0.60371816682426    0.75821683826794
C         3.28504682085033    0.13847641482661    2.21517804955015
N         1.94207484814388    0.29078073982475    2.76610612424297
N         6.38250847522703    1.11252634128126    2.39380447495559
C         7.33474259975026    1.94675400356764    1.90879411888896
N         7.95157264278251    1.73463057243714    0.73957564273911
S         8.93024215257385    3.07827161248358    0.57744474531172
N         8.55509327759781    3.81013671411603    2.03065052933342
N         7.66269377504689    3.07288729033263    2.66636098628587
H         0.97297196189966    1.01837200311417   -0.44814649743867
H         0.65091605222129   -0.43139141781312    0.58266383641568
H         0.70073347192916   -0.63355573745329   -1.13794212687611
H         3.10665853085879    0.00897699767514   -1.24432170078542
H         4.07419296232153   -1.84191544420619   -0.61962530702119
H         2.47940253170567   -2.47931233770880   -0.68469208574099
H         3.83476776633951   -3.17007843732910    1.28563380880139
H         2.25443872352658   -2.48701759334967    1.70337904189095
H         3.62299734050779   -1.62370448301026    3.32446468966273
H         5.70257856187616   -1.96851418707941    1.34614260209350
H         6.03271026285029   -1.32564803832167    2.95920190429243
H         6.77455080276220   -0.09802341052083    0.78870909780378
H         4.99267909901150    0.29325764583219   -0.57580684052482
H         4.99402933947813    1.77331625646767    0.40021442156258
H         2.84040846768089    1.57198083044615    0.72450167439170
H         3.96639185884196    0.80629771897145    2.75796825061619
H         1.30901176180323   -0.34213441680265    2.27486705392628
H         1.65441112324293    1.25102353314158    2.57485270835862
H         5.73038092190885    1.56799251963009    3.02949600138857
