36
 energy: -51.093348882046 gnorm: 0.131906022891 xtb: 6.4.1 (79825abcba525fcdf90b791dcacef51065a7a4e7)
C         1.47887610987976    0.20107955256749   -0.89567477719846
C         2.85231286442714    0.15496960832595   -0.19824779067870
C         3.32826489719000   -1.30651553821918   -0.11358573677546
C         4.40304910434134   -1.64099200738626    0.91751299834169
C         4.11597785080982   -1.07094514679993    2.30852033752894
C         5.15711891415014    0.01135696174950    2.63835432697115
C         5.13717817370709    1.13121563595054    1.57871718908284
C         3.71428590717795    1.72645064789694    1.58805778650117
C         2.64447576249759    0.67243556558429    1.24653759003337
C         2.74967067985414   -0.38850435634828    2.34573863938971
N         1.70789026214784   -1.40143564853665    2.20805852470630
N         5.98128041779195    2.27791533067342    1.91643206135901
C         7.29306783806810    2.12620012013550    1.60964737202507
N         7.72904409324090    1.17887451202315    0.76997700391864
S         9.36983843014850    1.42253595008893    0.57536273962960
N         9.42190807011525    2.80798431429265    1.50594956009734
N         8.24083705698930    3.05580148235627    2.04232560741009
H         0.82903409475127   -0.50896007884979   -0.37232795876852
H         1.61844931257346    0.02779591580147   -1.96883507206198
H         1.14411863838390    1.24037891033358   -0.83996365433204
H         3.60314460510526    0.65511679943425   -0.82589470564455
H         3.60634462507496   -1.74871887914705   -1.07975815007782
H         2.45515045514111   -1.89460417398242    0.20330520170567
H         5.40570054597848   -1.28374304160060    0.64661480612372
H         4.64069484709390   -2.71426239552211    0.93914002096939
H         4.11025601493153   -1.84893502696174    3.08913275051605
H         6.17875483440424   -0.38378742154967    2.71349904093367
H         4.91077054328832    0.35002954224649    3.65596240767267
H         5.43959409944148    0.66737859588243    0.63204539953336
H         3.62647285049611    2.48100684887170    0.79376928226269
H         3.49878540987431    2.19289732095938    2.56260000692895
H         1.59473759792496    0.99749018033071    1.20512360465251
H         2.64506192555495    0.17459368260975    3.28212272053838
H         0.96229212293551   -1.16893779922140    2.86585366933613
H         2.07799034951306   -2.32547762042250    2.43292929361287
H         5.79946325317317    2.74873980642303    2.80079076009422
