36
 energy: -51.080253573160 gnorm: 0.130747786900 xtb: 6.4.1 (79825abcba525fcdf90b791dcacef51065a7a4e7)
C         0.93264748452602   -0.33726827974678   -0.06019650236080
C         2.46803873598583   -0.40190946062964   -0.17532376611708
C         3.12087022306685   -1.79174491588342   -0.06667137053164
C         3.25136784570407   -2.31279468940255    1.36220153444521
C         4.02691521870131   -1.26955701856620    2.16994297300278
C         5.49916803040837   -1.09003731905173    1.76449583435107
C         5.78911497116287    0.24181274768793    1.04378915506427
C         4.66488289638515    0.83665325903773    0.17127476081255
C         3.24070530160144    0.60638613363649    0.71050833259031
C         3.33654194652499    0.09312230788978    2.15004925894910
N         2.09060222291115    0.23118765285853    2.89762149524053
N         6.17434370992406    1.28421707871023    1.99587746738420
C         7.21213849928067    2.10067021843139    1.68878328190260
N         7.90728024991216    2.20992273515899    0.54975331458153
S         9.24959207675135    3.15307652072714    0.86298095915077
N         8.78443641022396    3.45415904889639    2.43814754361917
N         7.63565975882926    2.88839570862119    2.76104909135350
H         0.49995137181857    0.61158486596504   -0.39604557101694
H         0.45143485389504   -0.49408354601399    0.91192709751018
H         0.52863110015361   -1.22000217215376   -0.56304945057042
H         2.69831327586445   -0.08292771167521   -1.20151112281413
H         4.19362759473329   -1.73347884165204   -0.29505259773503
H         2.56510533429059   -2.47719426510745   -0.72232488769620
H         3.79451780009569   -3.25305404976256    1.52719563493768
H         2.25786708665832   -2.51178951410347    1.78906202488977
H         4.00864659376223   -1.66043553301999    3.20025215793912
H         5.86309646810586   -2.01179294333184    1.29179251506789
H         6.10040728173457   -0.99474900050782    2.68119881719507
H         6.63288245758027    0.04398077478682    0.37169792090992
H         4.78832803743873    0.50449725291890   -0.86910695069224
H         4.86556001462184    1.91822946592377    0.23183156986056
H         2.64072891269231    1.52547742619862    0.77851854173665
H         3.99136737078681    0.75578127268295    2.73050109243438
H         1.38582216359894   -0.32753429796528    2.41411229696294
H         1.74967326170170    1.17488100170410    2.71159778541063
H         5.79969151299971    1.33157524334054    2.94150763021498
