36
 energy: -51.086902733407 gnorm: 0.128914066075 xtb: 6.4.1 (79825abcba525fcdf90b791dcacef51065a7a4e7)
C         2.18572041277830    0.36683069082313   -1.12140346792449
C         3.23668300739640   -0.01853420801041   -0.06223839882727
C         3.30926699978986   -1.55409002992786    0.01799141466221
C         4.04068217780515   -2.11146743321066    1.23641768574687
C         3.79325897951525   -1.27003794989199    2.49062781583146
C         4.98401971772979   -0.36665549595496    2.85136613908249
C         5.22197725192423    0.75905319023298    1.82498014750639
C         3.91634476613356    1.57419508892387    1.72557221697807
C         2.81503289356912    0.58514364504347    1.30016992820128
C         2.52323692461474   -0.42441800883605    2.41396657382093
N         1.29173142281586   -1.12485423923098    2.06314549880473
N         6.37295428969100    1.53262748556728    2.29222187475185
C         7.42990887880873    2.03736766777211    1.60957631822420
N         7.51886462716830    2.03397867107798    0.27367855101553
S         9.10145588644930    2.42991342372351   -0.08422122042626
N         9.47441841962481    2.87985567783126    1.47994666362816
N         8.47283307627365    2.64803947270487    2.30887935679280
H         1.22846861720668   -0.15842168803954   -1.03128261629802
H         2.52979258354728    0.17110071072416   -2.14340398167889
H         2.05017555550450    1.45168262969999   -1.11563064824404
H         4.14050831818069    0.46685342929955   -0.45636385985183
H         3.70128582090333   -2.05725407398766   -0.87616097508931
H         2.24228546416720   -1.81880599102157    0.02652597074842
H         5.08740764480576   -2.38984264847450    1.05422096792734
H         3.53476381675048   -3.06138642699311    1.46125789648549
H         3.77823685504270   -1.99725779481121    3.31862687148886
H         5.93237627686983   -0.90950865682705    2.95839926887683
H         4.68185796820651    0.13006483692785    3.78564665196651
H         5.67081953807981    0.38979020115868    0.89494081249438
H         3.94587218540174    2.40326910109711    1.00465275732871
H         3.78035875001965    2.05092303985210    2.70943389815251
H         1.88920786323150    1.16518454318576    1.17476469023830
H         2.33185772486680    0.11078301719851    3.35299344380863
H         0.42786829584693   -0.59579506260893    2.19161022524558
H         1.18732838723604   -1.80448988086669    2.81719451679792
H         6.23609805786370    1.98248159797741    3.19539691015791
