36
 energy: -51.080729468373 gnorm: 0.132151138748 xtb: 6.4.1 (79825abcba525fcdf90b791dcacef51065a7a4e7)
C         0.80072702252528   -0.95402208641099    0.27948899980096
C         2.20690805011888   -0.53619233822173   -0.19266805885651
C         3.09574565888913   -1.78973877128287   -0.10197112168660
C         3.61305046869234   -2.11856574218568    1.29605206295189
C         4.26225406816681   -0.93566402449182    2.01823141828671
C         5.54228987112100   -0.46451816671636    1.30853220719394
C         5.55027136238859    0.88183435772629    0.55714474312922
C         4.14955829561626    1.15467455081464   -0.02815474266614
C         2.90278457854235    0.55926605706623    0.65237565696710
C         3.24978992898835    0.20535752093917    2.10125057040371
N         2.22185861193353   -0.29292364186676    3.00974667631263
N         5.99447735198934    2.04866781212015    1.32046698122715
C         7.28569273320317    2.21715820641760    1.69768632233436
N         8.28647941978832    1.34022672355447    1.54948162171281
S         9.67327139524349    2.23066173933524    1.82037859840183
N         8.93249456948957    3.68643821508766    2.16698327347333
N         7.62748626070606    3.52610236962425    2.04334228370656
H         0.28630117925729   -0.04485712286386    0.60983418423692
H         0.83080720862251   -1.73087976608027    1.05199676556271
H         0.18345333703859   -1.28233762232669   -0.56104152112933
H         2.08348393865989   -0.13258862374889   -1.20741272122064
H         3.83539236485246   -1.78135605004498   -0.91389092486589
H         2.47809888192984   -2.66769170505670   -0.33926433292836
H         4.21749708975653   -3.03361262765357    1.35651748855830
H         2.70005255875494   -2.28482451820319    1.88566670349977
H         4.63004351428453   -1.29804727969608    2.99191826116166
H         5.82865642689626   -1.16947375439237    0.51697829245858
H         6.33105803021149   -0.40388061168845    2.07343791231712
H         6.20603356010162    0.71482278251837   -0.30591421290426
H         4.09743294210028    0.82671174377793   -1.07585878943318
H         4.07473155601907    2.25310369256428   -0.06815344390847
H         2.17656217946000    1.38505346631164    0.65094548829844
H         3.75197187231247    1.04683184335025    2.59579260413949
H         1.30349730284125   -0.44598761985606    2.59040169543546
H         2.09064386368338    0.32633642479107    3.81018041341704
H         5.31851907944512    2.73638111994189    1.64750565493980
