36
 energy: -51.087965294054 gnorm: 0.128457360457 xtb: 6.4.1 (79825abcba525fcdf90b791dcacef51065a7a4e7)
C         2.35196886256859    0.58819124320304   -1.17898267868180
C         3.33847033601164    0.07708779901996   -0.11106543893259
C         3.29678776688208   -1.45857402051507   -0.01287036293127
C         4.03552150043486   -2.05687375972836    1.18149565997567
C         3.81692977913124   -1.29964651206186    2.49339863150795
C         5.02632583247867   -0.49509231310645    2.99757799794462
C         5.33014375733612    0.69845248950146    2.06996951713255
C         4.06263461492849    1.56181719405802    1.90554202258410
C         2.96917205005498    0.68771300462048    1.26339003104873
C         2.61481855132826   -0.37549568323605    2.30690498624094
N         1.36879849391962   -1.01306107935670    1.89309764391524
N         6.39761623931612    1.52216282307520    2.63872602590510
C         7.40612933631860    1.89345663683388    1.81231035417927
N         7.61392346769533    1.28795473368181    0.63641218672225
S         8.85053527087460    2.10320233270216   -0.13534831285590
N         8.94344102167483    3.32277437768705    1.00139387386089
N         8.23454130986179    2.98882015569171    2.06439769935398
H         1.31010645851669    0.44156046468001   -0.87342585138512
H         2.65541575206759    0.22542764376807   -2.16767044010679
H         2.50021720270799    1.67072436478312   -1.21711316239190
H         4.32869827467438    0.43906131246738   -0.42132344573663
H         3.73543191701402   -1.88583920179729   -0.92468014680203
H         2.26847295402708   -1.84699661651664   -0.03000230480120
H         5.12248262786464   -2.07556186400860    1.02500645682981
H         3.69989612179427   -3.09734357038486    1.29824656740058
H         3.44335552792144   -2.03299858059084    3.22640191699453
H         5.95703707202562   -1.07366271007082    3.06509602106330
H         4.88832232004977   -0.07890150145253    4.00686146394039
H         5.68025267259663    0.55169980790356    1.04105012665433
H         4.25532595299075    2.34707365299666    1.16109404001109
H         3.75765126726922    2.06566440831984    2.83659985022248
H         2.03482091493628    1.25433142697622    1.13986911174375
H         2.41496753040681    0.01574046087899    3.31280331324344
H         0.58087583710669   -0.41778965650996    2.15289780071864
H         1.19024274101309   -1.94618359910556    2.26564928044719
H         6.18863064591497    2.37399760513043    3.15595521163519
