36
 energy: -51.089797525867 gnorm: 0.126011970702 xtb: 6.4.1 (79825abcba525fcdf90b791dcacef51065a7a4e7)
C         1.70312972988720    0.28713293917963   -1.11732857154861
C         2.84793877542967   -0.06590793741044   -0.14798162917990
C         3.00540458951274   -1.59069580643675   -0.00704405683530
C         4.11004753277303   -1.79873086841805    1.02576070949416
C         3.98545722756255   -1.09080368770547    2.37690142260252
C         5.16413267195379   -0.14129221632354    2.64763245533560
C         5.12080863994944    1.02222806680498    1.63686264164329
C         3.70521137118343    1.63352888746933    1.59931138815645
C         2.61498555125179    0.61217348976600    1.22472029074762
C         2.64884333980139   -0.35188926267349    2.41398024222423
N         1.57922405561998   -1.33869753864779    2.30255244290802
N         6.16375417288231    1.95644995564956    2.06227330873069
C         7.43001534011839    2.01268516230750    1.58129424977856
N         7.93867721856567    1.51166318578630    0.44869215193801
S         9.49526157263297    2.08381134658196    0.25084551142549
N         9.51450712461403    2.82977310013331    1.74461287038305
N         8.36056216751365    2.69036792109803    2.37152481867737
H         0.84161753272748   -0.38370246402680   -1.02722074308340
H         1.96346228838653    0.18427431822334   -2.17696435442414
H         1.46717388669216    1.35306950989332   -1.05890318692922
H         3.79235255147170    0.25715166799514   -0.60792872606770
H         3.40039092988901   -1.91862236136026   -0.97802874875121
H         2.07654011825126   -2.12160130914134    0.24583359656657
H         5.06830491715143   -1.52647338677424    0.56322286130716
H         4.22770192590620   -2.85558523257661    1.30516882801150
H         3.93491851303006   -1.87936866455320    3.14519037661254
H         6.06034778999053   -0.77142994473104    2.57517065568448
H         5.15157903724633    0.27618331411430    3.66570390139099
H         5.33072226120444    0.54209709015550    0.67343219601259
H         3.81525512491465    2.55647518551624    1.01277839799466
H         3.42951303218991    1.98867041695794    2.60509986317162
H         1.63568643789189    1.09807226851011    1.10555018439997
H         2.62448721261777    0.16287465547520    3.38313579348361
H         0.73425726433777   -0.78669152414428    2.45742912122235
H         1.62755644457585   -1.92336271715933    3.13755252020076
H         5.90991282378550    2.31693800397496    2.98011666360949
