36
 energy: -51.101025645089 gnorm: 0.118260016323 xtb: 6.4.1 (79825abcba525fcdf90b791dcacef51065a7a4e7)
C         2.25414455741463    0.40627978323343   -1.15791937354666
C         3.31183811104450    0.05862979752297   -0.09242281323640
C         3.42805619269705   -1.47482025695171   -0.02415001410870
C         4.14317163367424   -1.96973879130027    1.23038807618277
C         3.72731344728201   -1.29972251392486    2.54203016524959
C         4.91351540162249   -0.47429780225300    3.06714162462544
C         5.29500166300710    0.64360209382783    2.07614211242820
C         4.09501350353647    1.58082797193858    1.82986897837072
C         2.94420087192708    0.73716724106492    1.25026179007259
C         2.56519506334765   -0.34860760921712    2.26137507742161
N         1.32809258248085   -1.03041570316099    1.89394172561836
N         6.40688852847013    1.47076011590397    2.54624564112512
C         7.40032979733939    1.89679818954705    1.72802403864009
N         7.41058464464449    1.58622637235013    0.42572322075186
S         8.69899030932823    2.42019273997526   -0.23303516175955
N         9.28399922220695    2.93374469564986    1.24419170336971
N         8.45717593913190    2.65516812572022    2.23555425591405
H         1.28647084982782   -0.02829743532292   -0.88388824760590
H         2.62260291281149   -0.00200169168209   -2.10593076868666
H         2.10987265080895    1.48910019511534   -1.20258509771684
H         4.22061969341718    0.52222954568755   -0.50111280658137
H         3.98577018204957   -1.76608798350046   -0.92441637037360
H         2.39562006920738   -1.85253600260945   -0.02600023280689
H         5.20230011386310   -1.75451156208345    1.03482044779886
H         4.00486884585716   -3.05935483657258    1.28000451763324
H         3.43083205199871   -2.04997910130056    3.29294334330599
H         5.73850511377552   -1.19674118668684    3.12185289613601
H         4.83670542111046    0.01970905913232    4.04743255327019
H         5.67970526530738    0.17051161373699    1.16456313943010
H         4.44517192663550    2.44569393579117    1.24904511006122
H         3.78100228183557    1.98271069879019    2.80641019542210
H         2.08213447550234    1.36379838124491    0.97915146468394
H         2.49044534410776    0.19785880130221    3.21038746651868
H         0.63260217811102   -0.30297039062085    1.72136504436872
H         1.05207491693269   -1.57322637002384    2.71282226786840
H         6.59351774946531    1.70488120181466    3.51947753618111
