36
 energy: -51.086043985429 gnorm: 0.123999120254 xtb: 6.4.1 (79825abcba525fcdf90b791dcacef51065a7a4e7)
C         1.07327403340761    0.24379469640196   -0.67273378281304
C         2.47229488431574    0.09953831217188   -0.04282120234471
C         2.80499799663490   -1.40269242288867   -0.09023832371638
C         4.16641598727265   -1.72252956907019    0.52168124437554
C         4.13507244446489   -1.23011568977086    1.97040861611507
C         5.33865935515167   -0.33177314075590    2.29980552851789
C         5.20611443032471    0.91345102123342    1.40027195936454
C         3.83693672236021    1.61898473111062    1.48144460255354
C         2.63273916725312    0.66307904700307    1.39072393280081
C         2.88250625622646   -0.46551613226588    2.39511025009283
N         1.68888241546812   -1.30261209922141    2.46456950116520
N         6.18244351705190    1.88870780571343    1.88723794033843
C         7.48525374553439    2.05894617858660    1.55313466035296
N         8.30819207802121    1.10220710836310    1.10595427771067
S         9.80560963420417    1.81812286318521    0.91979047081355
N         9.35529332504178    3.29264732475395    1.56101046858725
N         8.05181679491442    3.31625548612366    1.77180171384881
H         1.07883353548594    1.16027799766063   -1.27304226785506
H         0.37831778903856    0.32207241458964    0.17112008432732
H         0.92196582430256   -0.67782024496989   -1.24110090524858
H         3.19324399616101    0.65992104742560   -0.65440912708252
H         2.71867972592108   -1.69224489895794   -1.14620698933418
H         1.97772840997534   -1.83146152372798    0.49318181715040
H         4.90577311267774   -1.23001648563000   -0.12415503936620
H         4.26303796969816   -2.81523783327649    0.44748262523898
H         4.15834184306161   -2.16978077194385    2.54586048934898
H         6.27445975583909   -0.86754001098911    2.09302722586918
H         5.41130267702799   -0.05254782466204    3.36172315447595
H         5.37788709354220    0.52254845685028    0.39008532373047
H         3.89171116504497    2.29571286344266    0.61715342378286
H         3.62132980624172    2.21877418147092    2.38006120776093
H         1.72497891089144    1.20234518861546    1.69811493370731
H         3.05783830719949    0.00746007971808    3.36998960609580
H         0.97345874484160   -0.89611236002325    3.06921256167072
H         1.80954176411340   -2.21360304469365    2.90833895854410
H         5.66676554596303    2.73818461881358    2.10924890855587
