36
 energy: -51.088277422201 gnorm: 0.129739979889 xtb: 6.4.1 (79825abcba525fcdf90b791dcacef51065a7a4e7)
C         1.31784508301850   -0.44667903044527   -0.60745334302543
C         2.75338536576522   -0.00527890706121   -0.26212875185379
C         3.67921853234851   -1.23479990872097   -0.28947658801653
C         3.52784867057781   -2.04317503314812    0.99653160418014
C         3.84574064282878   -1.24050668740789    2.26022975037901
C         5.22650743572023   -0.56530745247066    2.30184806375085
C         5.30208787892959    0.76434895566460    1.52492248823720
C         4.04759171186280    1.61057848202511    1.22634373789941
C         2.79167249984520    0.72788436975980    1.10146128085701
C         2.77965508634883   -0.15044296170609    2.35577348726842
N         1.54854452205899   -0.78686293182812    2.81362548793641
N         6.30759365502031    1.61639784350926    2.16088707170722
C         7.42575046870386    2.08829522169266    1.55676885176759
N         8.06300266720567    1.46940428629375    0.55505476643345
S         9.52717629919313    2.27234357386694    0.52446470002996
N         9.28006425792008    3.29360296887840    1.82220702495521
N         8.06919376672102    3.07760320412571    2.30301688517489
H         0.63412886900285    0.38621630909347   -0.80534296212182
H         0.96349118829288   -0.92448876102703    0.31304222965846
H         1.26127294394761   -1.23870396100811   -1.35898880145025
H         3.18143211862717    0.69986440465467   -0.98834157870692
H         4.71890623542736   -1.03566435081682   -0.58231746913995
H         3.37237789396156   -1.92472867848927   -1.08850353683512
H         4.21172665944861   -2.90218130974905    1.02376576407597
H         2.47232096379926   -2.31941115052419    1.13220564734486
H         3.73838875721042   -1.93273133910026    3.11108658558049
H         5.96886350763538   -1.20978843108280    1.81289254017700
H         5.46261432013267   -0.48148085209209    3.37336077101560
H         5.80255475083533    0.52987846322076    0.57763996067670
H         4.06050134823085    2.30764522102460    0.37670163835316
H         3.85490054019838    2.28727329210192    2.07410535025920
H         1.95679153229616    1.43913563646053    1.18159397446583
H         3.02281808118481    0.47891313452363    3.22157959313500
H         1.29197033043354   -1.62766878696066    2.29412430312727
H         0.75690307919546   -0.14372674630240    2.84640007416338
H         6.02865034843338    2.16881660093173    2.96949552822828
