36
 energy: -51.089709030485 gnorm: 0.123941859925 xtb: 6.4.1 (79825abcba525fcdf90b791dcacef51065a7a4e7)
C         1.51265945033252    0.25292481885367   -0.90494193919272
C         2.80032663073286    0.05729589163363   -0.08122981945818
C         3.24184359658707   -1.41686975292278   -0.04204648850478
C         4.38409038182222   -1.73416380719120    0.91961720657696
C         4.05809914992334   -1.18818757709526    2.31170360111367
C         5.14625716939808   -0.15173957394239    2.63702003713921
C         5.12795036487201    1.03803478234784    1.65650289039517
C         3.75060444988006    1.73146947064647    1.62362462151746
C         2.64112644627049    0.70889229845998    1.31463894332208
C         2.71977616352195   -0.45144012864552    2.31080430784020
N         1.62243403782706   -1.39541536146895    2.12360616374330
N         6.14772341013279    1.94678355307261    2.18159218585511
C         7.43448373011518    2.00246725374710    1.75842813272429
N         7.81332842474150    1.29079912084572    0.68952559929818
S         9.37352602695536    1.74562567443007    0.30434003626711
N         9.47153923287832    2.87327166023983    1.53193043744839
N         8.32255811001253    2.99784281669806    2.17096546431818
H         0.56400822681591   -0.15944221826853   -0.54389193708418
H         1.69239265414066   -0.19577318554045   -1.88858161223320
H         1.35626444419712    1.33298771486670   -0.97062452655240
H         3.48986958551699    0.70914376854241   -0.63572154793163
H         3.56694654230204   -1.74162441784450   -1.03964549781173
H         2.38001515943155   -2.06762688512072    0.16377835604858
H         5.21178275071603   -1.12365571614381    0.53422412879108
H         4.64143814449240   -2.80277618513139    0.94592892207872
H         4.03701801698648   -2.07602694733737    2.96435483160774
H         6.16555620000184   -0.55395657977006    2.56790584108889
H         4.94877027275185    0.30227844017221    3.61976082281388
H         5.43142605814237    0.72908249413919    0.64891235233544
H         3.70857809845005    2.65412040839917    1.02788183394606
H         3.68130413626981    2.09272061081021    2.66210457773341
H         1.61481731833480    1.08951222612606    1.42020373167297
H         2.63765132910397    0.09586360050590    3.25872399396724
H         0.75917360151480   -0.86357155213046    2.00281758300049
H         1.48318153704926   -1.96283296117239    2.96029040789415
H         5.87971771692046    2.63673997816639    2.88084648080672
