36
 energy: -51.089696595892 gnorm: 0.123283950189 xtb: 6.4.1 (79825abcba525fcdf90b791dcacef51065a7a4e7)
C         1.80290255273798    0.43488835970228   -1.04994467012860
C         3.01527702866015    0.19768752193549   -0.12867218271257
C         3.44092985181080   -1.28156068741476   -0.11189938370874
C         4.42293483708068   -1.67243623203974    0.98950100230548
C         4.06500042127384   -1.10400017113722    2.36464762754428
C         5.10747900592314   -0.05097793347978    2.77516641566652
C         4.99211766701934    1.14061855817148    1.80351752748769
C         3.55710982225060    1.70276568723835    1.86481598652388
C         2.61665485968136    0.61778869360226    1.30763821351475
C         2.67570630259363   -0.46889624513778    2.38491781017887
N         1.75356447190001   -1.57636459007997    2.15370267785113
N         6.01471851268228    2.17143717721503    1.98567298874970
C         7.31950466816511    2.05801150035892    1.63554688047506
N         7.85034996936671    0.93617830607832    1.13331089090478
S         9.33110506252212    1.38415200673835    0.50391786281770
N         9.22791821649679    2.99200627996495    0.94246929849855
N         8.09712573386491    3.21669281872362    1.58656997170439
H         0.93904270681783   -0.08347011336206   -0.61937123037800
H         1.79921601186908    0.13266742187170   -2.10342928787487
H         1.73355775955192    1.52592023401795   -1.03768865281062
H         3.83282331705711    0.81228545553125   -0.53082098916050
H         3.90830816811515   -1.50080147170672   -1.08135917629278
H         2.58003124355946   -1.93934867139131    0.07455576218178
H         5.43215420737044   -1.33026229640382    0.72357645676769
H         4.51640191910646   -2.76611813337896    1.05255965783406
H         4.16374062543458   -1.93771022917141    3.07867472877942
H         6.14211956493830   -0.41818928670027    2.76100551579783
H         4.96201083822641    0.28187217592778    3.81389770092687
H         5.21520348542477    0.62150198404279    0.86355029142413
H         3.62531292575507    2.64500829229413    1.30313310932733
H         3.35093299311577    1.81176138043182    2.94155021333919
H         1.60458739745984    1.04091241399708    1.38517308965237
H         2.50716665064512    0.03795110815654    3.34384311100677
H         1.01364049188215   -1.33724126267931    1.49188787258266
H         1.36951745015749   -1.83527342179052    3.06302584334238
H         5.81786711851067    2.96039513052976    2.59855010048392
