36
 energy: -51.095818656031 gnorm: 0.127764305237 xtb: 6.4.1 (79825abcba525fcdf90b791dcacef51065a7a4e7)
C         1.36794654745250    0.11538594524540   -0.84789276170694
C         2.73727019852012    0.03475387883746   -0.14553225312397
C         3.09309714227459   -1.46253341187124   -0.17951495440617
C         4.20526919480776   -1.83128512795098    0.79889996381510
C         4.04993553151909   -1.19507407652393    2.18214677526911
C         5.20965308683687   -0.27480136968568    2.59723279113179
C         5.20590084248631    0.97055159117319    1.68817070004336
C         3.84771230574728    1.68892601969145    1.55298035862026
C         2.70579788780527    0.70004850666364    1.25259673392772
C         2.75064153860958   -0.40244896529048    2.31438337054398
N         1.58160987811221   -1.27579548801178    2.28400387199900
N         6.19129569939494    1.95381072924280    2.13947831360492
C         7.44724675105308    2.08789564635115    1.64700620081888
N         7.94320112554009    1.36545281387293    0.63475472433708
S         9.53073085807893    1.85735536299645    0.46973079440076
N         9.42771932568279    3.00350677733112    1.67964641630800
N         8.22592244505117    3.09576042599201    2.21928971080460
H         0.54895407550905   -0.31329567348589   -0.25982285299720
H         1.46882853713393   -0.36590915490363   -1.82736138043209
H         1.18503246160119    1.17371064807017   -1.05234499195284
H         3.36617487183976    0.62853488392044   -0.82357297746291
H         3.35331798698453   -1.67976525079115   -1.22424301698913
H         2.21276642502265   -2.04711799163351    0.12359500532138
H         5.11572003235767   -1.53126968935053    0.26280986562696
H         4.12734697217897   -2.92001184270949    0.93101676381807
H         4.07062359940865   -1.98642103177230    2.94895755004138
H         6.16250375603423   -0.81175212402274    2.50087269764118
H         4.98635330835314    0.02197007174727    3.63307871673121
H         5.63137405870009    0.60880456849951    0.74429606907545
H         4.00307051616494    2.52797882680001    0.86029383140496
H         3.54416351321489    2.15180436928474    2.50552814124356
H         1.69268813996431    1.12775382124478    1.25422579430180
H         2.77815201021623    0.18994821282347    3.23804257385400
H         0.74818537024724   -0.68885917370185    2.22420716404880
H         1.55498618914274   -1.62614200960112    3.24209729639448
H         6.05768740416667    2.48866218088588    2.99557773702580
