36
 energy: -51.092941521524 gnorm: 0.124985145454 xtb: 6.4.1 (79825abcba525fcdf90b791dcacef51065a7a4e7)
C         2.48476376312398    0.55897452370488   -1.21900799927064
C         3.36760875790444   -0.00948636026263   -0.09104698892522
C         3.26346969062777   -1.54207332709470    0.00879869986951
C         3.95741112495180   -2.05980651734610    1.26601702667755
C         3.64686931541875   -1.24793339285683    2.52565612315946
C         4.93158437515658   -0.58727626870726    3.05213735904548
C         5.49445445496377    0.41552060310797    2.02506007921059
C         4.33149696847595    1.37133372543151    1.68895653560836
C         3.02858796056947    0.67260057688178    1.25735743678037
C         2.50364388425989   -0.24769502755156    2.36297594050028
N         1.23982798011648   -0.78259498867061    1.86604182940496
N         6.59639171583568    1.18406985022592    2.60518636573820
C         7.47716854242240    1.82232537615129    1.79599992446658
N         7.48129018160763    1.51220182143539    0.49355842227216
S         8.55973374248563    2.55393677134670   -0.24210417257536
N         9.04411454370194    3.31985295018712    1.16036432952524
N         8.34365363371448    2.84912967843481    2.17614751286399
H         1.41733283381346    0.57470039958690   -0.97266122875830
H         2.57405478727082   -0.12154089401496   -2.07347087733789
H         2.85539945246571    1.55051918947146   -1.49246333327062
H         4.40418677675102    0.27993713707415   -0.31370428057133
H         3.84208004692568   -1.82799272201608   -0.87992029915509
H         2.19206678117484   -1.78264787645198    0.06187088278318
H         5.03145258697593   -2.20194739963194    1.08559112228733
H         3.61129281426862   -3.07395195383478    1.51211404631659
H         3.36219064063757   -1.89947460118425    3.36774216304947
H         5.62088464794131   -1.39783880314105    3.32302351676841
H         4.75100756051958   -0.03775821480488    3.98826491560645
H         5.92795041783208   -0.13337427135277    1.18032143480501
H         4.72850987110161    2.07708810664718    0.94581996745094
H         4.13656614589209    1.99700631736410    2.57455312440780
H         2.28674927171699    1.47548740930627    1.13746589604359
H         2.31930119729786    0.37480559611403    3.24804561440568
H         0.48459057269532   -0.12392887733627    2.06210740703561
H         0.93679291722829   -1.55275012549981    2.46305550695404
H         6.63121060723739    1.25697092937804    3.62022162038123
