36
 energy: -51.098929758569 gnorm: 0.118479778858 xtb: 6.4.1 (79825abcba525fcdf90b791dcacef51065a7a4e7)
C         2.21776603491309    0.42533966732647   -1.12932810749577
C         3.25969733324607   -0.07556221877707   -0.11034057902224
C         3.27035156272631   -1.60498472396498    0.06398732144766
C         4.11270402154764   -1.98922396861532    1.27766060687514
C         3.70678423308191   -1.22111157537861    2.53761986680897
C         4.94824402898186   -0.43415285084268    2.98885890013710
C         5.42452513286367    0.58582783215930    1.93524238834880
C         4.22753990411202    1.51692567445230    1.65364409821847
C         3.00166003107498    0.69936206953319    1.20544105135122
C         2.52541506032253   -0.28914452225022    2.27359273242885
N         1.29419502674663   -0.89707863466455    1.77881452542303
N         6.55573804390522    1.26715677323150    2.56582021764163
C         7.48527708780253    1.86657900647405    1.78187457623135
N         7.51524182752045    1.55976660055578    0.47898712074307
S         8.77012010490061    2.46611391302982   -0.14812270251551
N         9.19887551091036    3.17636029806616    1.30097671609604
N         8.40407731537828    2.79101515072201    2.28273345981375
H         1.22048284809381    0.25569359211442   -0.70862716514530
H         2.14758120747797   -0.18639832392817   -2.03598771895589
H         2.37488359377590    1.47868512353707   -1.37648571363344
H         4.23778474873513    0.21700660082551   -0.51726160187122
H         3.56533878096439   -2.14763905378801   -0.84423628681806
H         2.24093546257572   -1.89536873579489    0.31810656759077
H         5.18256656833854   -1.93171980838525    1.03597897881800
H         3.96720333535765   -3.04815886503922    1.53522425708059
H         3.39177400249614   -1.91337074306643    3.33524295669916
H         5.69903485120177   -1.19726379733954    3.23278641218580
H         4.77494264540457    0.24650865256079    3.83595950502986
H         5.81681432936043    0.11560023343742    1.02541663468000
H         4.41861270693559    2.31447590059283    0.92195751066131
H         3.95789397270540    2.06348637282916    2.57141749855775
H         2.18785867710698    1.41877393284950    1.03368592874231
H         2.36803059942285    0.32429516494621    3.17011907025535
H         0.52534032745526   -0.22547299577553    1.80060024877040
H         0.97058613920141   -1.61701303590081    2.42562691169245
H         6.38114976492492    1.51353594971415    3.53826030389369
