36
 energy: -51.084646306707 gnorm: 0.116314884953 xtb: 6.4.1 (79825abcba525fcdf90b791dcacef51065a7a4e7)
C         1.37102033816086   -0.67204970874920   -0.45216432610192
C         2.81092568615269   -0.18436802133521   -0.19977925505746
C         3.76186404444692   -1.39291971125412   -0.13081604866218
C         3.47846496229384   -2.14481210672525    1.16708342491601
C         3.69404273923440   -1.20016240664279    2.35174706455590
C         5.07390460042046   -0.53421125928381    2.48071735173006
C         5.42940229994150    0.61400746626498    1.51504293770985
C         4.19520975420406    1.47754869300188    1.18326035676041
C         2.86571545624912    0.70926001771596    1.06386591636391
C         2.65474890554899   -0.08046369843110    2.35875280286483
N         1.29372853673742   -0.57792155197230    2.53325585157990
N         6.37883084996758    1.54430658453205    2.12709611067702
C         7.50266631602205    2.06168800528313    1.57281198959720
N         7.80454927870237    2.17696605004882    0.27353331358516
S         9.34855950977357    2.81368463131318    0.26495893595487
N         9.53209113145741    2.95398903501184    1.91868233151038
N         8.45499518298035    2.46900477291814    2.50918714862029
H         0.79400168858489    0.05781130653310   -1.03069279870604
H         0.67929255651181   -0.73694400145304    0.39546903888656
H         1.46339179683153   -1.62712037358890   -0.97620343859315
H         3.23827605647306    0.46767980755479   -0.97440270281627
H         4.81949444598882   -1.10475131502439   -0.19965057187004
H         3.54819239043909   -2.06979259893775   -0.97033047239256
H         4.07422846058232   -3.06272887812432    1.26098355140390
H         2.44226734910999   -2.51236516283315    1.15988408969393
H         3.54977485833940   -1.82722208793587    3.24653178216453
H         5.83606227735546   -1.32417074424011    2.50532330063207
H         4.95300096009208   -0.04773871503596    3.46032933528977
H         5.87993015127491    0.27668445506966    0.57375365821644
H         4.56002007651910    2.02493142161353    0.30277980368516
H         4.16013921860018    2.16017444506618    2.04728446520443
H         2.09534968466416    1.49215146045765    1.11811926087692
H         2.81756902170998    0.62297927283410    3.18549045732165
H         1.11877757102270   -1.41802513779648    1.97982616837500
H         0.69961509674983    0.14448111015508    2.12514051809745
H         6.35507993603009    1.62159805109386    3.14212586356915
