36
 energy: -51.090460954614 gnorm: 0.125330715065 xtb: 6.4.1 (79825abcba525fcdf90b791dcacef51065a7a4e7)
C         1.42580175515092    0.22237558562225   -0.81160515937833
C         2.74531529402597    0.15378193679076   -0.01848597880652
C         3.25395505784797   -1.29885963289978   -0.04596269205453
C         4.26002028115756   -1.74160639718918    1.01328626281101
C         4.08955579279645   -1.06548323380699    2.37566071895564
C         5.17002593132706   -0.00349185315001    2.63815201762410
C         5.15815140764983    1.09881757411482    1.56015158426717
C         3.72529891900994    1.65715934125893    1.67932640004618
C         2.58611972323965    0.64857641264341    1.44035170066591
C         2.66992230791245   -0.50519839993729    2.44368781151674
N         1.68848366037467   -1.53082509976260    2.10433523358215
N         6.07661054570774    2.19953995284567    1.85395970040180
C         7.38365523570872    2.15859663425478    1.49635876434135
N         7.94099224781459    1.13907284075906    0.83115643417604
S         9.53215488695791    1.51709973077667    0.49241052302597
N         9.47621221829935    3.00621229553495    1.24579252332243
N         8.29672021210128    3.16474480005036    1.81824986687716
H         0.83815161620462    1.13667949761458   -0.67355265355599
H         0.79290687812063   -0.64676803634911   -0.59896845528339
H         1.86611887983025    0.15974589869499   -1.81035828936128
H         3.43810046112689    0.81877337130569   -0.55296826861377
H         3.53811410710200   -1.55546095210461   -1.07541433813559
H         2.35733342152918   -1.90213995805342    0.15582793335873
H         5.28038559093495   -1.47650698966989    0.70522857084032
H         4.31749704566746   -2.83809668677820    1.07036560966256
H         4.14916357189172   -1.86020507012167    3.13692341937864
H         6.10895306992390   -0.56801480971775    2.71064652960645
H         4.93327419955239    0.38474765767508    3.64021567547809
H         5.47655474048790    0.65688131138353    0.60825907020954
H         3.51869914698434    2.37604809577772    0.87404636024418
H         3.67033231467855    2.15408605644537    2.66105347406135
H         1.67782704405805    1.25304396149170    1.57800805253872
H         2.40991268751870   -0.10151844449404    3.43074154270634
H         0.74724111916677   -1.13529652735421    2.08742591037669
H         1.66398069680529   -2.27249799278966    2.80484607484744
H         5.88769545922551    2.98477539147206    2.47407249758105
