36
 energy: -51.093598749497 gnorm: 0.127234073288 xtb: 6.4.1 (79825abcba525fcdf90b791dcacef51065a7a4e7)
C         2.12424165150419    0.39877141716089   -1.12622791670789
C         3.26795072334906   -0.10948020228262   -0.22707890153293
C         3.09685809977383   -1.62426572473903   -0.01309515076131
C         3.89818663183801   -2.16140281809813    1.16993342286556
C         3.70733486837104   -1.39707320238035    2.48204647871187
C         4.96132909369768   -0.68340624717391    3.01338540106454
C         5.47942772872586    0.33370496611084    1.97686691546918
C         4.41458281916908    1.38595476630836    1.60553138346217
C         3.15230920977650    0.65103756692323    1.11702374888825
C         2.70196727639539   -0.26943973126301    2.25492366659703
N         1.32837562704001   -0.72481444441463    2.06473437438442
N         6.64626800537399    1.06045504080632    2.47866192317054
C         7.48241908631355    1.82001185169699    1.72909844720498
N         7.53037472322562    1.77684298750694    0.39179364152112
S         8.68818113510386    2.86476038995096   -0.12334876766236
N         9.03519082341203    3.40542784431827    1.41789528490371
N         8.29518800278619    2.78870718432993    2.32127383603812
H         2.38518463808446    1.41698383195637   -1.43525067078763
H         1.22432499870590    0.33866534609600   -0.50355769173768
H         2.03137170549561   -0.27706777439897   -1.98058499575866
H         4.28005914664400    0.11348835185562   -0.59280800304731
H         3.13493344223599   -2.21887615968024   -0.93578144145409
H         2.05581252463392   -1.69575560684847    0.33289657844224
H         4.96475161313084   -2.08999178451700    0.91761971663916
H         3.73898705275957   -3.21201712695712    1.45227657312216
H         3.28219257283862   -2.03650480577164    3.27263994544698
H         5.76790114373099   -1.39216751005701    3.24278634423435
H         4.77965961116609   -0.21932678948332    3.99447628411657
H         5.88399622233377   -0.19457994166554    1.10507159143899
H         4.79984822424604    1.96122598870306    0.75195418613516
H         4.14290996144160    2.07611286296112    2.42016085919659
H         2.47075619615819    1.50240937760711    0.97568227085896
H         2.64831585214308    0.35154235581313    3.15843922106660
H         0.74434027003485    0.11081153868353    2.00730426609818
H         1.18739087166965   -1.14977141080951    2.98175640016529
H         6.70748225399621    1.18063897104213    3.48793498661857
