36
 energy: -51.090392312910 gnorm: 0.132134192426 xtb: 6.4.1 (79825abcba525fcdf90b791dcacef51065a7a4e7)
C         1.64051023687490    0.30375429859867   -1.05175288997994
C         2.84404588023806   -0.00554172411992   -0.14032706959893
C         3.17914534356656   -1.50787714546833   -0.12206382266963
C         4.22894914061012   -1.90205679529547    0.91366523606594
C         4.10232357270301   -1.17060254910052    2.25202449000885
C         5.20656235965821   -0.14375818493906    2.55267455601411
C         5.16384117899635    1.11425694109676    1.66223373571120
C         3.75473513549161    1.72952452274753    1.54024855825476
C         2.72395814356322    0.61688157526095    1.27266279345036
C         2.80474880297845   -0.38388348567757    2.42888280810317
N         1.66997473434487   -1.29718984898919    2.33695112934698
N         6.04992719577594    2.16470588163225    2.16511420230302
C         7.29830979344087    2.25541253002106    1.64431307836917
N         7.64834968101993    1.41494126542777    0.66266772983259
S         9.28128580192936    1.65788234957598    0.40978252725575
N         9.47963573744266    2.82292670409329    1.58940077332219
N         8.34321463452158    2.95730972631749    2.24858939411473
H         0.76631674687285    0.18039207391086   -0.40297686425840
H         1.62373882078741   -0.34092017503256   -1.93792131135818
H         1.62274393927184    1.37931365858644   -1.24711378888207
H         3.71683025198344    0.48498804842852   -0.59360866657740
H         3.72575266498247   -1.81917349530432   -1.02243947917448
H         2.25227395274910   -2.07005920449109    0.06085070300552
H         5.18998048332985   -1.49797464413835    0.56803684653590
H         4.29697759152182   -2.99366433031529    1.02599380734891
H         4.22472272183877   -1.93893025721847    3.03263180059962
H         6.22793603574441   -0.53633965112014    2.46211295012536
H         4.98373252672252    0.19938934138810    3.57419769455549
H         5.49135717544527    0.83215191276667    0.65429636801368
H         3.69308962163042    2.45292528136572    0.71511122483062
H         3.55079344116302    2.23635044191332    2.49695165247823
H         1.72766624954287    1.08195274805652    1.29357107342072
H         2.78842149232404    0.12890374430283    3.39925400701865
H         0.80641871958902   -0.80410254590662    2.56890418712463
H         1.76632248199666   -2.25684953597244    2.67036515237810
H         5.79716465188792    2.68421656187039    3.00359093624035
