36
 energy: -51.101496110852 gnorm: 0.115203671702 xtb: 6.4.1 (79825abcba525fcdf90b791dcacef51065a7a4e7)
C         1.68569028004073    0.22147861531853   -1.08218952997328
C         2.86034984079927   -0.18691924917961   -0.17210975288432
C         2.90628325709070   -1.70181830318896    0.09734876508087
C         4.04696124963111   -2.06274423628751    1.04539226996921
C         3.84131074158300   -1.22987185105123    2.31278972172311
C         5.09621550017355   -0.39507186787468    2.61687216661119
C         5.40392225972080    0.76884906452174    1.65358788191011
C         4.08040898298982    1.49831747646103    1.34503829299825
C         2.81386772831451    0.64851390588853    1.13106446295656
C         2.63675745232432   -0.29033311954450    2.32776858720091
N         1.38458983110750   -1.03983432111552    2.30294287236074
N         6.31277253013314    1.70229182521619    2.32003815105364
C         7.47436402050337    2.08010210977115    1.73191807780322
N         7.78780019996409    1.83085641921637    0.45434936816145
S         9.32229628999345    2.43862792654403    0.19864013183843
N         9.51153662072744    2.98612259199539    1.76472057066155
N         8.46217184349753    2.68823239903796    2.50912392842792
H         0.70842546220034    0.05545767308468   -0.61557047069233
H         1.67151592764506   -0.42242168019508   -1.96896595401506
H         1.75393689545618    1.27752921549177   -1.35679649761801
H         3.76666246573341    0.13660704517182   -0.70292458164874
H         3.16219156397937   -2.21138611161414   -0.84138063769784
H         1.95059484722930   -2.10369051683985    0.46307455452022
H         5.04045945392731   -1.83264521595931    0.63754626608330
H         3.94066343033288   -3.15208326105705    1.14976588775582
H         3.61437791866678   -1.87466951155850    3.17730939107201
H         5.97640625922352   -1.04461551373066    2.71112222227081
H         4.92318896351921    0.06203753590879    3.60278579917264
H         5.94169192640178    0.59861947617546    0.71304900799784
H         4.13556715780579    2.18903017693066    0.49190642832633
H         3.92228102604892    2.11662299542903    2.24305798741682
H         1.93293107455492    1.30400511403629    1.07099974654150
H         2.69854001288528    0.36252820362084    3.20799162416070
H         0.61273818994909   -0.37331093564836    2.25138786097079
H         1.29448283153434   -1.65852052625581    3.10948030034896
H         6.24246154247955    2.01827403152826    3.28545780027298
