36
 energy: -51.076880640885 gnorm: 0.137705508033 xtb: 6.4.1 (79825abcba525fcdf90b791dcacef51065a7a4e7)
C         0.93382987133723   -0.92488140150184    0.10520871392969
C         2.42800175110638   -0.62517610193279   -0.12388993490445
C         3.32020409065274   -1.85863361712592    0.10457103567808
C         3.66853828185042   -2.09580337054525    1.57174998432039
C         4.23364606284096   -0.78789887137489    2.13059148732674
C         5.49321991230320   -0.47410406058009    1.30648615989094
C         5.44795605020602    0.90447835744613    0.61744795492835
C         4.12486918158959    1.26037843261144   -0.09092386716009
C         2.88343330010193    0.66587897599909    0.60007899456131
C         3.17104654611386    0.30750954979938    2.06081595330947
N         1.95837715692328   -0.03066132482733    2.79930461135129
N         5.87820142484535    2.01521292617509    1.46752899207663
C         7.20104772247744    2.30673255037292    1.52243443607865
N         8.16865087500651    1.71131375248663    0.81407855240435
S         9.61612079688664    2.20199455683310    1.48751366136822
N         8.87877387773619    3.22651893318372    2.58060083873936
N         7.56135332198952    3.13487190763241    2.58732915861581
H         0.19641089652830   -0.28662633677557   -0.39397716256397
H         0.75551493840070   -0.81487683601886    1.18097992711101
H         0.77973517503023   -1.94754081631218   -0.24937836782362
H         2.51518182774591   -0.39827146091922   -1.19568754709176
H         4.23577787348147   -1.89243481471732   -0.50118750657898
H         2.83722245443448   -2.72664933097622   -0.36646443422346
H         4.55063800352772   -2.75018799992872    1.56989619530291
H         2.82089766013615   -2.62768630178171    2.02722610202621
H         4.43929649074377   -0.78100018989071    3.21332740921373
H         5.67235082102011   -1.29214411738025    0.59638169018358
H         6.31138754847998   -0.43866606769437    2.04150910383266
H         6.23636915066864    0.94547013062628   -0.14380900416225
H         4.23782236997667    0.80344958530171   -1.08410966863172
H         4.04237803718082    2.35831733863686   -0.12927591756296
H         2.05317162586085    1.38494516791255    0.65425667756463
H         3.52837731089205    1.17588634738139    2.62921196024254
H         1.79313905357965    0.53233673114884    3.63500542392234
H         2.00381179614113   -0.99264214248186    3.13682958702901
H         5.29413306748013    2.49373692124329    2.15068521163694
