36
 energy: -51.090935366343 gnorm: 0.120899803053 xtb: 6.4.1 (79825abcba525fcdf90b791dcacef51065a7a4e7)
C         1.80106124449159    0.13081390748694   -1.10465223105361
C         3.00285402057448    0.05065645021157   -0.14333646556414
C         3.47140306347793   -1.40983158509835   -0.01267122054898
C         4.41638839770238   -1.69770538368420    1.15108635031860
C         4.02862901931136   -1.04039865537451    2.47768175887224
C         5.10370229029699   -0.00457524115778    2.84569049339244
C         5.03548297955451    1.16541381155142    1.84380040774804
C         3.63458446268005    1.79610327415059    1.70694806296209
C         2.68898753106645    0.67400832441958    1.23915853984068
C         2.66704071728317   -0.35563533695995    2.37240821262903
N         1.59322243823405   -1.31153783213252    2.12050178448061
N         6.03171493609555    2.22133831887543    2.02826036044780
C         7.31112861362019    2.10839163938280    1.59436600973922
N         7.64512167851831    1.22200822192100    0.64815221903553
S         9.24166538942183    1.53493430354157    0.27055836407732
N         9.46909238643228    2.80712191578025    1.32790688412454
N         8.35462871879332    2.92976880066259    2.02573912158670
H         1.53841318217202    1.19427894070521   -1.08462864135842
H         1.00620843477078   -0.50743561654753   -0.70212585292750
H         1.97914274019736   -0.33609220694786   -2.07706938258437
H         3.91694769529009    0.50988349038183   -0.54505713447895
H         3.89768803568175   -1.67352003469009   -0.98996893572442
H         2.59118163056977   -2.06513365855476    0.05355857740869
H         5.41940084855048   -1.41282839543352    0.80592880788873
H         4.37472883781112   -2.77705595885508    1.35631649596645
H         3.93136295601843   -1.85088193944648    3.21816332350152
H         6.05851218871873   -0.53516217255276    2.73459879238745
H         4.95381196526958    0.29513625402239    3.89384066298099
H         5.24221983715517    0.64539393606365    0.90060005329909
H         3.69881699635958    2.70107035844519    1.08656979304865
H         3.24794008058852    2.11929905166931    2.68663992398480
H         1.67593518484476    1.09170167764425    1.14651354181265
H         2.41599679205995    0.13351260709958    3.32243390838409
H         0.69281903969791   -0.97186770027498    2.46191681080162
H         1.82063966134854   -2.15109463754589    2.65418736060468
H         5.80589498531980    3.12348134666790    2.44294914961980
