36
 energy: -51.087023901842 gnorm: 0.120699717921 xtb: 6.4.1 (79825abcba525fcdf90b791dcacef51065a7a4e7)
C         0.99574250870728   -0.49253475869216   -0.23540540506082
C         2.53470991065328   -0.56629286653578   -0.26699890921525
C         3.11987718464333   -1.93913809091344    0.11050888388228
C         3.24870518299148   -2.15526240843004    1.61612965227528
C         3.94140003794587   -0.99495264909882    2.33454452144019
C         5.35431481518049   -0.89977877732598    1.73558138371828
C         5.69926329528149    0.40056888126004    0.98230952909828
C         4.56231639563775    0.92197046814688    0.07980938455576
C         3.15785914361733    0.55804872238209    0.59666372888984
C         3.19759721544767    0.32024118883189    2.10887104288151
N         1.90934285441265    0.28223891389997    2.79388828182535
N         6.12856910449176    1.42656915932772    1.93336162689070
C         7.33211319588971    2.04825705424217    1.87945069311045
N         8.04271567404780    1.94636380334589    0.74931382233685
S         9.33632823836511    2.99694488472690    0.86020834587700
N         8.99338562126907    3.50449395369741    2.41357712223835
N         7.93212191650516    2.85160465631211    2.85117999060724
H         0.76022747333996    0.52199408436775   -0.57541528205135
H         0.58504053723263   -0.61601703166541    0.77318615745134
H         0.65925911086601   -1.07996491125187   -1.09390071304319
H         2.78443662273799   -0.46822466314208   -1.33276407985651
H         4.07011150138654   -2.06951949807989   -0.42467026404918
H         2.39367487956867   -2.66312697647636   -0.28580824495754
H         3.91957378630743   -3.00692375460156    1.79200139532065
H         2.28634678756646   -2.37737986802682    2.09922667489759
H         4.01949501693661   -1.18303268103695    3.41768063874482
H         5.50269745604173   -1.73151956164183    1.03435699079770
H         6.09203565768409   -1.08005976183408    2.53193531770057
H         6.57975328814448    0.29812629932879    0.33653047535079
H         4.64772601573091    0.48767380834893   -0.92619858831285
H         4.75800092101110    2.00440879197950    0.01832475022415
H         2.51808240531561    1.45226412399547    0.57690494241589
H         3.79486316494901    1.10856313572225    2.58495870667134
H         1.55918641525683   -0.64584107338925    3.03621924491598
H         1.17170947726220    0.69165740960224    2.21972105442991
H         5.76564584000888    1.32691287826499    2.87950052704727
