36
 energy: -51.088380701252 gnorm: 0.127761883396 xtb: 6.4.1 (79825abcba525fcdf90b791dcacef51065a7a4e7)
C         2.26919963232019    0.41082310893562   -1.14326922861703
C         3.20994011186420   -0.03109775773777   -0.00547642081195
C         3.26961008558641   -1.56869110421902    0.03791951465420
C         3.90035607942550   -2.12980525033413    1.30973348430299
C         3.60999111151889   -1.31450171420504    2.57196692459919
C         4.83124965822238   -0.50741049015273    3.04236514814845
C         5.34081322083641    0.60075565594660    2.09916591129741
C         4.16082055970725    1.54273993103187    1.78405098977235
C         2.94597853956522    0.71412614860525    1.32619092672599
C         2.47277912285247   -0.31801085964865    2.35365293662305
N         1.29017622508120   -1.06377766705471    1.93463688574172
N         6.53556369014032    1.38099742206012    2.42362584953272
C         7.45817618058499    1.92835820765416    1.59470911913722
N         7.44401383467436    2.03767087475729    0.26039371551058
S         8.87598605752857    2.74314021884486   -0.23074803526441
N         9.45183757206805    2.92095859538339    1.32647574725815
N         8.60159859072251    2.43731165388255    2.21373031506642
H         1.21410057621213    0.14201674744342   -1.02140058705583
H         2.77170847369355   -0.06221427518267   -1.99468066982171
H         2.36330412720378    1.48981058789312   -1.29239950451318
H         4.18904737960933    0.30416345848608   -0.37532117163571
H         3.83665895166745   -1.86112562833123   -0.85611570025856
H         2.25455611940838   -1.97687405240241   -0.07001160071574
H         4.98125691178977   -2.17990357100859    1.12140880862565
H         3.61720309997921   -3.18394734697382    1.44187528011114
H         3.43540757398812   -1.99416044996868    3.42181480780189
H         5.60736930322425   -1.28305999986198    3.08150533628278
H         4.72650971486422   -0.01634433315865    4.02154667752201
H         5.60714769345706    0.15258958838550    1.13428205746706
H         4.50002834310081    2.22784265374872    0.99441004884561
H         3.90323135298841    2.14576940266151    2.66934688366824
H         2.16352829228659    1.45242322049490    1.09812298403945
H         2.25831922902250    0.26158416049455    3.26079912374749
H         0.39829717244994   -0.60462402501341    1.74385952282912
H         1.00348594695179   -1.83314680362810    2.54066852350490
H         6.64075813583706    1.48679049051313    3.43088224158818
