36
 energy: -51.092210848705 gnorm: 0.126203423781 xtb: 6.4.1 (79825abcba525fcdf90b791dcacef51065a7a4e7)
C         2.10763198351687    0.11580123863060   -1.20242886170732
C         3.14834166857572   -0.28074950954623   -0.13728570616965
C         2.96722184028674   -1.77160434521265    0.20062606838121
C         3.82116861019318   -2.02875666752548    1.43951584348315
C         3.61186236121339   -1.10699969057475    2.64318514529801
C         4.94034537932678   -0.43081539610662    3.02008135478590
C         5.39958274377414    0.47235353153490    1.85788562486478
C         4.29920580208277    1.42347785514875    1.34451685787928
C         2.98851130275686    0.65769933587747    1.08424618819021
C         2.51706546383174   -0.08649158199823    2.33677212142416
N         1.20228976254613   -0.70075850826327    2.18078143335642
N         6.52953944065945    1.29814495102355    2.28537425080968
C         7.49692872835088    1.89237663029561    1.54445100112847
N         7.70760876483602    1.83624503207122    0.22346250889567
S         9.06261139329731    2.76770430096511   -0.06945927425854
N         9.34933067248394    3.15521246826588    1.52922760158536
N         8.46518181276752    2.55275287639846    2.30341400788444
H         2.24696270789267    1.17503134502092   -1.44524844939206
H         1.05270664984549   -0.03421275201582   -0.94589569515107
H         2.14905634608281   -0.48900088811398   -2.11226833192794
H         4.18328362987452   -0.20622961622533   -0.49947092215529
H         3.43768487413720   -2.31025287305608   -0.63297071358590
H         1.92015797789182   -2.07030607070725    0.35238740153684
H         4.89099969867274   -2.05717847825223    1.19258217113704
H         3.63841070169055   -3.04370204425486    1.82074807847066
H         3.32231593594837   -1.59495642663272    3.58802262719580
H         5.72057428113939   -1.18539776517530    3.18553254506789
H         4.90313554022671    0.18286242082437    3.93273015267642
H         5.78567466655159   -0.16195372270698    1.05080754432675
H         4.62231300272337    1.96368809086322    0.44355344874114
H         4.14446483731097    2.16144311557807    2.14776528232589
H         2.14160882614067    1.32399269303433    0.86484876859173
H         2.51114041872689    0.70720768087161    3.09495675994132
H         0.54476731233930   -0.22792733603980    2.80268271512941
H         1.31447028471882   -1.67834164489147    2.45122783299477
H         6.20222376157534    1.92991737649446    3.01376394336720
