36
 energy: -51.083132222316 gnorm: 0.127468005729 xtb: 6.4.1 (79825abcba525fcdf90b791dcacef51065a7a4e7)
C         2.09394057487304    0.30569618520730   -1.17431323955166
C         3.11515085191974   -0.20475316219434   -0.13921413566997
C         2.83520332224478   -1.69767311969382    0.11069849910257
C         3.72675278735249   -2.12296513650534    1.27451401769819
C         3.70531358143175   -1.25949350086591    2.53793079638253
C         5.02262935300321   -0.56655380323461    2.92349124568696
C         5.49898185366673    0.32180662252700    1.75677959247817
C         4.33544385436138    1.28930803619527    1.45822511278934
C         2.98460332635019    0.60649219537779    1.17349700110846
C         2.59835577826753   -0.21480653014036    2.40685981023690
N         1.22903403303294   -0.63381381410121    2.12457804967670
N         6.64755717478324    1.09701742825082    2.22720822790518
C         7.62885878756894    1.82010762589327    1.63382106688955
N         8.00386386405230    1.69142568519481    0.35500927147936
S         9.06396339318118    2.93501689211154    0.00986934864830
N         9.05205969757971    3.50826132584394    1.57812295525175
N         8.30864138813032    2.77774048933206    2.38911610513764
H         1.09305764551801   -0.06246592291143   -0.92324979464454
H         2.38332767472860   -0.00664719279467   -2.18420316100581
H         1.90412619371330    1.38196878411698   -1.14402702427404
H         4.14169345709308   -0.17934990326310   -0.53087876765489
H         3.05638589455851   -2.25195029081562   -0.81137329598728
H         1.76012736779111   -1.83756800822141    0.29301165111230
H         4.76337751826587   -2.12259935209786    0.91156547489278
H         3.41527800991628   -3.15645329473795    1.48365102962413
H         3.35890191462549   -1.93672542883977    3.33543482293164
H         5.70735922394685   -1.33756785508235    3.30059618910348
H         4.85552492709309   -0.01800187111846    3.86268226465852
H         5.82070679953306   -0.19554508024640    0.84484320031877
H         4.48107094818757    1.84150786401921    0.51916784265265
H         4.17203879417845    1.96125597267275    2.31585574454095
H         2.31199850276316    1.44886665683030    0.95593340234780
H         2.63734224189536    0.38490220739873    3.32537332860134
H         0.61170280683725    0.11383832037554    2.44486658311690
H         0.95664340782693   -1.57186049342207    2.41998673372924
H         6.59248321209267    1.27967849476006    3.22742085257624
