36
 energy: -51.090718116873 gnorm: 0.124490611314 xtb: 6.4.1 (79825abcba525fcdf90b791dcacef51065a7a4e7)
C         1.55013727422964    0.18175952887358   -0.99200735710455
C         2.79084610013599    0.11836476926964   -0.08015113343503
C         3.34122762600543   -1.31733832850862   -0.15413528470155
C         4.32389104128784   -1.74973208733757    0.93104142865924
C         4.15790949803475   -1.01362514999897    2.26252988088464
C         5.23389034588358    0.04157645548809    2.56741977876489
C         5.07369137544149    1.25718760636500    1.63257336785297
C         3.61334633162334    1.75282130677593    1.66003180788745
C         2.59810751407229    0.63205041584786    1.36807226246867
C         2.74986701597268   -0.44877785828036    2.44216806226741
N         1.78996822888628   -1.53853411540624    2.29616221453497
N         6.03611496941046    2.26272704326646    2.08436026739292
C         7.32313046290406    2.23371596882132    1.65930723549638
N         7.67215616110879    1.26661629447491    0.80172532167501
S         9.31129965008407    1.39292358798521    0.50726520829145
N         9.48726288472143    2.70109722893934    1.52995231366878
N         8.34804611783215    3.08531292812789    2.07639976084374
H         0.64277720730189   -0.34480386556948   -0.67614106952416
H         1.85199218172633   -0.24919466393811   -1.95343495210756
H         1.32432476453401    1.22077958361220   -1.24647834653754
H         3.51492805838896    0.76373432896962   -0.59690992454579
H         3.89502358585408   -1.34949998822817   -1.10209991984766
H         2.50373408916595   -2.02870121820300   -0.18825806235551
H         5.37866779594823   -1.69572456614322    0.62962515487316
H         4.16464935140213   -2.83218159961167    1.03965870160309
H         4.25809677787353   -1.88887903038648    2.92476090494924
H         6.16975272399226   -0.42148559402660    2.22791875724096
H         5.20998951566435    0.31585492522081    3.63283656553365
H         5.41323123826843    1.00745183947208    0.62008513460669
H         3.57452539951131    2.50398861547054    0.85865733664954
H         3.40148656239937    2.14800892493056    2.66635566501473
H         1.64012706093216    1.17180910633270    1.38419251801892
H         2.63699218440205    0.13484142316834    3.36492770898054
H         0.84905364635768   -1.23437429567781    2.04153927409095
H         1.89467939671581   -2.17385177843364    3.08787020866367
H         5.76257795080781    3.13062152435810    2.54126304562364
