36
 energy: -51.085192512212 gnorm: 0.130256549367 xtb: 6.4.1 (79825abcba525fcdf90b791dcacef51065a7a4e7)
C         1.18101644881842    0.18907526809134   -0.79495713904568
C         2.54120619906816    0.04327313876493   -0.08539058345214
C         2.89434482362032   -1.45469568960681   -0.11731920508546
C         4.19869842432814   -1.80621627460164    0.59352203626715
C         4.17612808413217   -1.22813621278655    2.01041260257055
C         5.32217713726686   -0.21963935965789    2.19384863332993
C         5.19502893294709    1.09239422126978    1.39402788544520
C         3.77919166670352    1.70162561267259    1.45109256581476
C         2.65332472780871    0.65745942074273    1.33185210867296
C         2.87919838526307   -0.48503410336426    2.32613184992196
N         1.69497070619643   -1.29097744608044    2.60604658311517
N         6.09123068333868    2.14764295780034    1.86810878361275
C         7.42965262819833    2.12570441247340    1.65347880417846
N         8.06805889733568    1.28537981603437    0.82956165158107
S         9.69586772020466    1.64412874913367    0.93439156579584
N         9.45499537152273    3.01146817602055    1.86204109904688
N         8.18282504410963    3.18003096936816    2.17382725592607
H         0.29207292707547    0.06277047634401   -0.16712806868655
H         1.14667069070429   -0.46224553442155   -1.67574230776758
H         1.12078644817391    1.18585442813948   -1.24005613338327
H         3.17052958010248    0.54928551443112   -0.83087015069151
H         3.03491402003159   -1.65542641797271   -1.18797731413294
H         1.99195749611838   -2.04068512278811    0.10831427194176
H         5.06452883580916   -1.36762423769669    0.07942347267159
H         4.30690181014389   -2.89866483161923    0.53268805333721
H         4.23957873753479   -2.08779853530985    2.69715236184009
H         6.24419167648296   -0.75965267591089    1.94126080790956
H         5.47149342629312    0.12246873159871    3.22901991248218
H         5.47019064524725    0.84536568930871    0.36153059764434
H         3.58572491504969    2.30918232403865    0.55587978977967
H         3.55574735035158    2.29085482646665    2.35476679233069
H         1.71195558636481    1.19912951185987    1.50431527790809
H         3.09738126774647   -0.00570254801205    3.28918693203327
H         1.02982532150417   -0.65314144745773    3.04583420960923
H         1.82271979012332   -2.17069492970466    3.10721704719084
H         5.61112643298739    2.97279262581458    2.22230001199604
