36
 energy: -51.090806764357 gnorm: 0.124728788570 xtb: 6.4.1 (79825abcba525fcdf90b791dcacef51065a7a4e7)
C         1.44025833189234    0.28361015960200   -0.87015537346826
C         2.76070850497591    0.07724961086344   -0.10289677005265
C         3.10199523886890   -1.42303250626925   -0.15099927004700
C         4.28268873821433   -1.63708963038594    0.79258045737171
C         4.09996022993844   -1.10716284374704    2.21667762128531
C         5.23122100728061   -0.10180395853401    2.48805494695812
C         5.10046057772034    1.16721501475311    1.62214240750405
C         3.66934892563757    1.73402749431664    1.72041468059297
C         2.66392897513464    0.63103506935440    1.34013045089283
C         2.70459314821149   -0.50375078061669    2.36751063670215
N         1.64954090817885   -1.49439814111100    2.17836865124440
N         6.05982916482668    2.24063694974151    1.88454929682379
C         7.39902960985499    2.12148279036123    1.71058081016245
N         7.92146720676380    1.11935512543405    0.99270439624354
S         9.48109460506593    1.52373527035042    0.55282857274862
N         9.50087333071216    2.89414797069870    1.50663572416642
N         8.31239969249607    3.12711163033064    2.03322825785108
H         0.70944054099138   -0.42098313272418   -0.45809169524452
H         1.61907990734963    0.11107236737092   -1.93759833867594
H         1.01596225508366    1.28614161775748   -0.76909613175674
H         3.55702083339278    0.67645403949386   -0.56622920577722
H         3.42699412026608   -1.76173199852331   -1.14398450683724
H         2.26729561054995   -2.00727159639699    0.26196341831331
H         5.23295101040537   -1.20698872922072    0.44857837547130
H         4.49225316263070   -2.70853280332037    0.92275293613015
H         4.32681708297299   -1.86179076115110    2.98721604309070
H         6.20199299105882   -0.56350816651516    2.26454483768141
H         5.40871706246102    0.21436941441775    3.52701712485692
H         5.28307633483238    0.95048796876867    0.56267623571333
H         3.46366694561627    2.54535728233364    1.00809499458365
H         3.34551610584978    2.06368337210827    2.72051708918692
H         1.71347905332961    1.18255972577938    1.38245521924203
H         2.69514218074895    0.01906962080402    3.33260497785616
H         0.80379010208525   -1.09256163995560    2.58567602825850
H         1.87248468516207   -2.42530410949538    2.53207002564246
H         5.80903170414401    3.08522000532990    2.39504275578258
