36
 energy: -51.089101300244 gnorm: 0.130135102387 xtb: 6.4.1 (79825abcba525fcdf90b791dcacef51065a7a4e7)
C         1.16179919562025    0.20929371239726   -0.58912648696509
C         2.60751556063819    0.04547096342023   -0.08126292330273
C         3.05007314371227   -1.42802806510271   -0.13205964779940
C         4.28427345024745   -1.67202062009689    0.73247347741439
C         4.16273790763919   -1.18364685713513    2.17780562671497
C         5.27845340646940   -0.15582294176121    2.42860442100220
C         5.11750500594201    1.08308761473498    1.52499595891503
C         3.73518877792177    1.76444202690332    1.58802319123108
C         2.67089783522322    0.68166252480649    1.32927426526557
C         2.81897494102725   -0.47199120010292    2.32529575656543
N         1.69856797457554   -1.35945551205120    2.02968206432143
N         6.11064929498776    2.10977145965107    1.84290296951502
C         7.43325024133017    2.03638476451786    1.55435183513748
N         8.08953558284203    1.19417781584581    0.74656196939872
S         9.69351788399569    1.65482595336151    0.81361228382722
N         9.43865358119880    3.03973414261380    1.71096603148248
N         8.15914661499429    3.13261018242402    2.02445818526449
H         0.47572074386453   -0.43258859061863   -0.02554304916289
H         1.25302187987244   -0.19664148756039   -1.60306729762679
H         0.80147255821046    1.23103089969148   -0.73584829617391
H         3.30086742836057    0.59815360387674   -0.73060205103293
H         3.19766139956955   -1.72580301073855   -1.17891641231688
H         2.22909954113882   -2.09843242024710    0.15975759991421
H         5.16743269822788   -1.19459528830663    0.28703279872867
H         4.54714260788168   -2.73295269731939    0.61341247857373
H         4.18431872376375   -2.03108866283858    2.88210204072575
H         6.17389961629317   -0.77218369489019    2.27432770626243
H         5.25888885978027    0.14643393867037    3.48651314994831
H         5.26416467095836    0.81938399422796    0.47060558889090
H         3.74436983285642    2.52036195953217    0.79023800123022
H         3.48511657902307    2.27061020072078    2.53406928072555
H         1.69099347487618    1.12251018318076    1.56329707245670
H         2.72459217799789   -0.07320742874630    3.34357910681631
H         0.84736167240264   -0.85195745825562    2.27577119133460
H         1.55726855464837   -2.14752546343865    2.66243378584996
H         5.85578419636797    2.77779295061467    2.56789577226312
