36
 energy: -51.085486191446 gnorm: 0.122042354644 xtb: 6.4.1 (79825abcba525fcdf90b791dcacef51065a7a4e7)
C         2.51515419948689    0.28933068538335   -1.43431342090278
C         3.24058032826543   -0.21411211114590   -0.17131642893753
C         2.96721408755697   -1.69922926022199    0.12757300641494
C         3.75032574146006   -2.11437990874783    1.37038690739024
C         3.60637051803526   -1.19036895294403    2.58189238413186
C         4.95844049455192   -0.64037535965020    3.06516969676871
C         5.42679458854749    0.30942832287644    1.94453174194903
C         4.36296647541534    1.31688951394365    1.46255031002789
C         3.01517012357683    0.68270582026290    1.07097180301765
C         2.60371800528877   -0.06257460903050    2.34382954268798
N         1.28059242939150   -0.67576690274236    2.28361270304306
N         6.68662171217540    0.95204215679533    2.32051473339862
C         7.50671880731318    1.79846224904068    1.65048909017833
N         7.38793482761176    2.06332262594421    0.34347463633502
S         8.60541221061638    3.14204486869153   -0.03541691677595
N         9.32282868210889    3.13241993007106    1.47235999560348
N         8.55892350614513    2.44512849626389    2.30189041760676
H         1.46101376558602    0.01513379201399   -1.31621668182654
H         2.88442001782846   -0.30549387461643   -2.27752598746795
H         2.67248050314664    1.35379959176732   -1.62786920889021
H         4.30035537425725   -0.14841017464048   -0.45485891435684
H         3.25016824032966   -2.33615257425765   -0.72132448433033
H         1.90064073992035   -1.96448463137097    0.10192431055275
H         4.81790388753419   -2.33200203237828    1.23167812297058
H         3.35091510904637   -3.10362418007818    1.63631833225878
H         3.14046028620739   -1.79442181366182    3.37731969367848
H         5.77414049879742   -1.36953929513418    2.97308672644655
H         5.01384646753339   -0.25528780454869    4.09451445183980
H         5.68273862694014   -0.37847064955811    1.12962354787013
H         4.88558462641164    1.78531746188687    0.61673355798188
H         4.13586485286524    2.06934797796975    2.23454554859915
H         2.25153944945856    1.44587561082217    0.86176864132200
H         2.62372550883990    0.68930013950256    3.14328039510747
H         0.50574609426503   -0.01405296579338    2.21717382328033
H         1.08124794910633   -1.17254243955050    3.15244546280054
H         6.75533717416002    1.12812254131965    3.32106326993667
