36
 energy: -51.097484921886 gnorm: 0.117859845695 xtb: 6.4.1 (79825abcba525fcdf90b791dcacef51065a7a4e7)
C         1.97117176623611    0.30335611658803   -1.05285655164555
C         3.19677818916912    0.05672740553028   -0.15178926192247
C         3.46362987002573   -1.45802900849606   -0.08901929660637
C         4.23368085573608   -1.87840307237124    1.16018340326099
C         3.84932826049087   -1.21020781840014    2.48232295087701
C         5.05316298571582   -0.39651359229127    2.98514172504951
C         5.23423087791560    0.84469238946460    2.08851801829294
C         3.94387169941380    1.61587888576725    1.74317915773775
C         2.85777724961887    0.64711952254582    1.23921312359084
C         2.58039682599870   -0.36985345589709    2.34994646736939
N         1.44987982966909   -1.19791135714241    1.94184901191137
N         6.28407144979505    1.78054671429858    2.49285890566063
C         7.38480400044508    2.00866839462833    1.73505356402728
N         7.39916696417474    1.74274025881149    0.42294709964202
S         8.91079050281189    2.20013204998775   -0.12041161649012
N         9.42337261387328    2.81116207555333    1.34658263641071
N         8.49900612358299    2.65297480716729    2.27640236998659
H         1.03740287391253   -0.08798452730637   -0.63420278548237
H         2.17339553171725   -0.21616696236310   -1.99645723335717
H         1.85319015099976    1.36773749685704   -1.27304299441291
H         3.99706861337892    0.59807137530214   -0.67554315071682
H         4.01401165085720   -1.75521712281533   -0.99185948562125
H         2.44212158815425   -1.83871620854888    0.05308997632399
H         5.29139596225723   -1.59777048387000    1.06633939927030
H         4.11945063417263   -2.97153166815968    1.18974535886117
H         3.62731513460172   -2.00078249722873    3.21741383965084
H         5.95154926091257   -1.02111083035683    2.89400351627880
H         4.98739426828156   -0.04170094117926    4.02470668535928
H         5.56122752847660    0.32988704044165    1.17701577655368
H         4.16366700904686    2.36802857581526    0.97251626898844
H         3.52821286673228    2.18016083947501    2.59321393452899
H         1.93079463848988    1.22310509414680    1.10404757582875
H         2.39480737777849    0.12222474068050    3.31340542428996
H         0.70239040299968   -0.66638533564839    1.49306628274613
H         1.09607348940570   -1.69267816876538    2.76125207959971
H         6.35826418387345    1.94322728416416    3.49528293886964
