36
 energy: -51.086543055833 gnorm: 0.126210215172 xtb: 6.4.1 (79825abcba525fcdf90b791dcacef51065a7a4e7)
C         1.89649225070509    0.60352192635769   -1.06270655757724
C         2.93038852285539    0.03078391825613   -0.07382392377310
C         2.84065373782321   -1.50592997937499   -0.06407258822516
C         3.85857987185267   -2.03261477540341    0.94420807522736
C         4.00825033704802   -1.29299185029915    2.27568156091060
C         5.25913062906172   -0.43512362844254    2.52768123456478
C         5.21796489164824    0.88038240555480    1.72452411572653
C         3.83641637493150    1.56129788790423    1.80633063940192
C         2.73817706831467    0.57691705815560    1.36254847978178
C         2.69843182147172   -0.52168863133026    2.42856375129121
N         1.51710314564656   -1.36341438994742    2.26653745269441
N         6.25402609507014    1.80301952520118    2.19013998809789
C         7.38454160403298    2.13482930479176    1.51950030316978
N         8.08140943257201    1.28773163123739    0.75181011739738
S         9.58584474893437    1.97201068743849    0.51121040463385
N         9.17149062278508    3.41562091165804    1.24091611952557
N         7.96547811930289    3.37799879107868    1.77772127952859
H         0.94174612352464    0.09987390839232   -0.87524628891736
H         2.13722198857502    0.24983148560753   -2.07173243202084
H         1.77824851265804    1.68630765505390   -1.15706208794433
H         3.94936346259186    0.24555315410755   -0.42510802711834
H         3.07001634096840   -1.81288554424064   -1.09340849897899
H         1.83097446375048   -1.83346289057102    0.22205144350696
H         4.84583153925416   -2.15184218618899    0.47790172163905
H         3.59604989709518   -3.07622279316115    1.16962535224922
H         3.90048454394465   -2.03638780166981    3.08215898905346
H         6.17532247833084   -0.93499365421494    2.18672919482720
H         5.41615279622051   -0.26233437625053    3.60304202431087
H         5.49816741678016    0.62768862188718    0.69475708199725
H         3.88295273425577    2.50109884885832    1.23837904866781
H         3.79190242558725    1.93831203039389    2.84055712472700
H         1.84765619496377    1.22027594723369    1.31368264173804
H         2.60521353583434   -0.10013761578847    3.43774299439138
H         0.78460528941095   -0.72826821647267    2.58700982596639
H         1.45782347184953   -2.15554838328635    2.90716541848986
H         5.84207455636080    2.52552231139739    2.77759991163514
