36
 energy: -51.094395087976 gnorm: 0.129493555169 xtb: 6.4.1 (79825abcba525fcdf90b791dcacef51065a7a4e7)
C         1.20374591099687    0.31553695888855   -0.74887628573365
C         2.55846587902328   -0.05914964573841   -0.11705125539817
C         2.81209274538106   -1.57711654933153   -0.08408426585296
C         4.16534971263560   -1.83800154939191    0.57229588349963
C         4.34686358045816   -1.08813377398696    1.89404316458898
C         5.40773973493640    0.02263227051785    1.96392643499166
C         5.07664528868332    1.31793484391438    1.19589016511801
C         3.62918966487039    1.75435115998043    1.50154917637852
C         2.65961281332394    0.57624360453971    1.29164207693247
C         3.01939752304124   -0.47871717371978    2.34164935564363
N         1.95045160289690   -1.44356254988444    2.57980927869214
N         6.04346556313574    2.32631781549744    1.63166819497419
C         7.38462367743694    2.12980640176538    1.65613833627139
N         7.95021639629333    1.16678835903688    0.91772884579274
S         9.58317269040756    1.48544343093657    1.06389436000849
N         9.43761634721083    2.88478621428658    1.96324044276835
N         8.16515041119841    3.15937955505747    2.18565963608895
H         0.36614462584235   -0.14690879788947   -0.21510588839327
H         1.13205630880513    0.00018423760479   -1.79606022075859
H         1.17380301015217    1.40778168724198   -0.78648396314837
H         3.39317874889193    0.30514569496581   -0.73217689639153
H         2.82262607368012   -1.92107293961806   -1.12712997746427
H         2.11096029170813   -2.09718311369233    0.58415298348335
H         4.91966136803497   -1.46213179782389   -0.13201829564215
H         4.33914659688813   -2.92022085719003    0.65860118430603
H         4.55335698477329   -1.89497848079542    2.61585954168942
H         6.39774711154478   -0.38112587135768    1.71414543622598
H         5.47453561227000    0.27737255379153    3.03236388086723
H         5.15272295178859    1.27268936629509    0.10275122971457
H         3.42177243345104    2.60953778551956    0.84307034175983
H         3.60845846003276    2.14670953216054    2.53080650908664
H         1.68078691451005    1.02441970089446    1.51606119097654
H         3.11380132793098    0.02592176180326    3.31183751104143
H         1.04461518461986   -0.97274593320716    2.60121947216283
H         2.14400575399565   -1.99854376986661    3.41403176269795
H         5.78902806450625    2.89313269866895    2.43839363779234
