36
 energy: -51.092959605048 gnorm: 0.129918287864 xtb: 6.4.1 (79825abcba525fcdf90b791dcacef51065a7a4e7)
C         2.00676169095612    0.35887797248611   -1.14419236714641
C         3.13286860240093    0.25264970085843   -0.09755113814337
C         3.57432439374533   -1.22179153045369   -0.06968121193428
C         4.57650706542309   -1.59864999807709    1.01834813253591
C         4.15802918614015   -1.05971614119612    2.38827198546175
C         5.06349710214742    0.04231705980556    2.96254870500374
C         5.03139031000755    1.24770606566424    2.00165408208984
C         3.60049306836696    1.79845202070589    1.83364708742387
C         2.71094591833057    0.64176950917937    1.34082960306861
C         2.73853244690626   -0.49541249752979    2.36599230721573
N         1.76184420481956   -1.52556584808536    2.02664550868868
N         6.01735101906786    2.27918168276118    2.32633802449648
C         7.18457995524171    2.09178203867391    1.66272776424228
N         7.48411130460578    1.01638579921283    0.92357194168467
S         9.02560816316102    1.19870645339972    0.30713194012739
N         9.17949762909667    2.75902632260277    0.88149261655948
N         8.18091725956722    3.06969397405808    1.68794423325278
H         1.77773809745835    1.42481544614568   -1.25221236102698
H         1.18757385104763   -0.28717726913113   -0.80844717434135
H         2.31791331524112   -0.10182922150775   -2.08559716934838
H         3.93638225051467    0.84252532458582   -0.56042127129720
H         4.02702471069894   -1.48403040612010   -1.03542159510308
H         2.60555581091898   -1.71941523669708    0.08016884621828
H         5.60113424185876   -1.40056644337052    0.67596729536696
H         4.50151495315108   -2.69182250935102    1.10891649599156
H         4.30008612915505   -1.85005335492963    3.14315189893363
H         6.11554125160220   -0.26302209215428    3.03668974128807
H         4.61840276123082    0.37250302685848    3.91322273948091
H         5.38570093919580    0.90707478221192    1.02123477991454
H         3.50704468091505    2.71529509381061    1.23479268447086
H         3.25163410753321    1.99929011263713    2.85917476315973
H         1.68798729620863    1.04534164153887    1.33750501875076
H         2.51055421567295   -0.04233423574017    3.33943135603523
H         0.83065753331941   -1.11466533932041    2.10861166107322
H         1.89853838631230   -2.34028455167625    2.62576373159207
H         5.73296981761635    3.23773414425410    2.51902425771892
