36
 energy: -51.090056717458 gnorm: 0.126673828371 xtb: 6.4.1 (79825abcba525fcdf90b791dcacef51065a7a4e7)
C         1.93856701980639    0.48227209059536   -1.12809184810835
C         3.07737313950654    0.00266890637909   -0.20724415942026
C         3.14289051424822   -1.52854376595913   -0.06325775480346
C         4.13540512203008   -1.96796473096785    1.01006615498719
C         3.87269704446854   -1.32381680536543    2.37326926206131
C         5.12721551094951   -0.57648986326164    2.85475543023218
C         5.31460336343486    0.62542835121068    1.90734296237783
C         4.09737096062858    1.50246912833505    1.54934975840979
C         2.86067453132689    0.66367793628307    1.17640351708816
C         2.71557626919478   -0.32706680828347    2.33496893368508
N         1.44023495250082   -1.03224120694189    2.25418722005955
N         6.31969004918460    1.53358286747924    2.46100016307037
C         7.32376376989273    2.00472340733127    1.68139565245863
N         7.81951662725166    1.31129217501008    0.64895693660901
S         9.13569233453075    2.20234653163523    0.13597027234530
N         8.99876997936479    3.38835936891875    1.30335884173110
N         8.03860310037832    3.10281277705800    2.16393078774124
H         0.98663219153321    0.51140282657273   -0.58650686229627
H         1.89600116891972   -0.13676543199453   -2.03150848110629
H         2.21297989241647    1.47398338244161   -1.49757220958462
H         4.06574404976373    0.34710627483483   -0.54238895873685
H         3.32818396830894   -2.10276104926601   -0.98102794573938
H         2.16478236571292   -1.91160132918896    0.26103886888701
H         5.18887888682576   -1.78640235219927    0.75797349122964
H         4.03373646085310   -3.05348548131537    1.15205475212113
H         3.63771922762927   -2.11153479640692    3.10739633001130
H         6.06444445753736   -1.13967750572591    2.75501893967996
H         5.03608579121877   -0.26554800798633    3.90638435355810
H         5.82672276413769    0.26239475011045    1.00804989431377
H         4.34139165338897    2.10351246630364    0.66212868184200
H         3.93923433569930    2.20335315164728    2.38451435617536
H         1.97007104329557    1.30829458147010    1.15149048909298
H         2.58338442050475    0.20418948939964    3.28635193561495
H         0.77569604181391   -0.25823866558292    2.29862146606610
H         1.45721053944967   -1.47443409493492    3.17373700001984
H         5.94262232584315    2.06982918772112    3.24015567390842
