36
 energy: -51.087603385995 gnorm: 0.132123069274 xtb: 6.4.1 (79825abcba525fcdf90b791dcacef51065a7a4e7)
C         1.58248146547074    0.09771015481740   -1.13390840074415
C         2.74210764796530   -0.12114754581107   -0.14283448934639
C         2.84848966058596   -1.63935549082431    0.08817283415317
C         4.00198327479669   -2.03404670967933    1.00679766804567
C         4.00808621469291   -1.19876288987336    2.28918937442535
C         5.17900268654158   -0.22589230060195    2.50510718403006
C         5.24196775331231    0.95541935575663    1.51624412527007
C         3.86481310803175    1.60984008293757    1.28345026623092
C         2.67479007834879    0.63512522911087    1.20694029418338
C         2.79107711852570   -0.28536052844112    2.42517090013278
N         1.60491258479985   -1.13202113050250    2.50561735752899
N         6.19504006498330    1.94591420580833    2.01829318872471
C         7.49543136641278    2.00037737894694    1.63890309759053
N         7.93611319575964    1.78302446651082    0.39346956203169
S         9.53302016607426    2.27145443085296    0.36561336869166
N         9.48374075006962    2.84536751786988    1.93289303768807
N         8.36808842338008    2.55511234284713    2.57718581696504
H         0.69548204018436   -0.46229010784811   -0.81772088735208
H         1.88381081712199   -0.22143536932963   -2.13816318879109
H         1.44083545688840    1.18139921355279   -1.16330035489388
H         3.57370287131301    0.34708550655875   -0.68785136504002
H         2.76314548319502   -2.19886542947958   -0.85311685606209
H         1.91432833716522   -1.93916562795473    0.58421059530397
H         4.98012097990341   -1.94895039296445    0.51452961681359
H         3.85669912244400   -3.11634560705026    1.13475932678640
H         4.01686445714837   -1.89778093487211    3.14121841576766
H         6.06971744468451   -0.86069012885221    2.40927021377741
H         5.06920226247977    0.18707902622068    3.51916409312842
H         5.53657745811573    0.56496843509637    0.53464293832722
H         3.99481711331270    2.19972053837009    0.36524525514624
H         3.77359139825088    2.33173214900207    2.11067210361599
H         1.77115893819064    1.21536239009229    1.44379775972390
H         2.87199971475252    0.34163175372075    3.32248343316304
H         0.79083640135023   -0.66650310160616    2.10158861050301
H         1.39719187338801   -1.23313934315174    3.49961017833764
H         5.99684959447888    2.22848384750197    2.97625896331215
