36
 energy: -51.076571931446 gnorm: 0.135328438473 xtb: 6.4.1 (79825abcba525fcdf90b791dcacef51065a7a4e7)
C         1.12545795552768   -0.01480206819790   -0.05943950252149
C         2.62280519433070   -0.27816070908372   -0.31133734403647
C         3.06287837478749   -1.73304078819835   -0.06782877295612
C         3.06805731032993   -2.12130902916842    1.40845751577562
C         3.97784727570164   -1.22117072975865    2.24768219069049
C         5.47309443621203   -1.35700410884703    1.91612786467366
C         5.98430132606975   -0.12149273242761    1.14834460016910
C         4.99203595852936    0.60360561310789    0.21632732154972
C         3.50995533021411    0.56915926214568    0.63385342731084
C         3.43632906881872    0.20149838067664    2.11854433722428
N         2.14122675960688    0.20820411440701    2.79156521427702
N         6.35877610503392    0.85920576112370    2.16789317145306
C         7.18347678424567    1.87815197667284    1.82215040763022
N         7.62258414284586    2.18288733408833    0.59460465400599
S         8.76490717459388    3.39748625826275    0.69103711610208
N         8.47910776729134    3.70996212108463    2.30622991851779
N         7.58453087081519    2.84425356733778    2.74704988484440
H         1.05302723432194    1.05695910351782   -0.27490319095168
H         0.86061954234456   -0.25733508226096    0.97604070892032
H         0.51046320151770   -0.60840439551974   -0.74114851421558
H         2.89963431807760   -0.11681619642704   -1.36260789351755
H         4.07748546302665   -1.84119301005254   -0.47432211937553
H         2.42500847497327   -2.38569618589636   -0.68082132711614
H         3.33289451485038   -3.17967219802643    1.53515101364417
H         2.02951631637951   -2.07234130365316    1.76607091198197
H         3.88448264520014   -1.54210884003003    3.29789099827309
H         5.67244094679350   -2.24612101502791    1.30354491084384
H         6.11150976061144   -1.36175290788162    2.81240694272057
H         6.91224559145868   -0.36386237670054    0.61640090673290
H         5.22030903238665    0.30472910620279   -0.81639948453796
H         5.30392789149237    1.65878362588163    0.27171960085061
H         3.13335068585572    1.58857190134356    0.46564919117852
H         4.04900546223045    0.93985911457205    2.65173155673979
H         1.36556482660085   -0.29969128862268    2.36371348276701
H         1.94969332489551    1.07370317976261    3.29715478063182
H         6.64787920667343    0.52476977368651    3.08516929005789
