36
 energy: -51.099412651341 gnorm: 0.120569863422 xtb: 6.4.1 (79825abcba525fcdf90b791dcacef51065a7a4e7)
C         1.48185944138941   -0.63141090858707   -0.57102640379991
C         2.80265932484834    0.02587692115742   -0.12569570261525
C         3.90358746414281   -1.04753943679587   -0.19898564986947
C         3.86508036188495   -1.88311017930383    1.07793995067718
C         3.86101221553019   -1.04261669729898    2.35693132395248
C         5.15982707350431   -0.23762822245843    2.52785979393997
C         5.25921114430972    1.03648178319583    1.66525999775613
C         3.90471559177157    1.74588220736846    1.46251097730881
C         2.71784055744395    0.79601091808381    1.21522617952110
C         2.64242884405116   -0.12467011041350    2.43652138499211
N         1.46192839858928   -0.97031174369272    2.58349416551156
N         6.19152963496140    2.02316971584364    2.21180299932245
C         7.45103590677554    2.05461648368022    1.71122769996688
N         7.78967776542038    1.24465941405728    0.70036733836933
S         9.34130275959964    1.68541041235324    0.26718134966115
N         9.43859649144078    2.95686276422220    1.34519484516631
N         8.29269131944090    3.13667741795903    1.97655004106817
H         0.67660457749424    0.11039155142063   -0.53057234811759
H         1.07443463942763   -1.51554089399280   -0.06753845725094
H         1.58642978847141   -1.01266945308674   -1.59034794962528
H         3.01460884007483    0.76999948579931   -0.90620528432739
H         4.90754395879839   -0.63684809228756   -0.37151174794117
H         3.68105217719541   -1.69951390167486   -1.05572615449159
H         4.75822455874233   -2.52187032468026    1.05341428521224
H         3.06209714937767   -2.63287142503931    1.03402408203991
H         3.72272547931496   -1.74061757055856    3.19855375361679
H         5.99182039477850   -0.93666502830450    2.37082344306330
H         5.27372999557393    0.04385823745966    3.58554800079672
H         5.65452529437858    0.86156354211727    0.65733241699183
H         4.00870737338400    2.55835631623101    0.72968634950967
H         3.68372603363700    2.23916047799999    2.42250351875724
H         1.83213603865899    1.44107909033259    1.12173605623701
H         2.75815911853436    0.52984777309188    3.31004894684141
H         1.32858851167791   -1.58667709071064    1.78038737127230
H         0.63198267849387   -0.41350617763807    2.78977593312196
H         5.87577834774436    2.81782600096352    2.76465557864132
