36
 energy: -51.089466240925 gnorm: 0.129200220203 xtb: 6.4.1 (79825abcba525fcdf90b791dcacef51065a7a4e7)
C         2.34790674525862    0.64840577445180   -1.20692271798098
C         3.24228628450911    0.06931567145737   -0.09354989322685
C         3.36033245866859   -1.46267991086240   -0.00032103117152
C         4.02527242674777   -1.98164525798808    1.27197223493262
C         3.70113103418739   -1.28086544672811    2.59337486924009
C         4.97933613603287   -0.58434953480663    3.08855206941537
C         5.43548169809220    0.48297200224377    2.07362941545592
C         4.29041898507109    1.44290408683442    1.69103796753948
C         3.00481464515727    0.68689532529793    1.30665539723642
C         2.54788415900880   -0.30109012758877    2.38368924225622
N         1.33051737684743   -0.92720573733361    1.87743878073227
N         6.54547821401836    1.28655654311140    2.58708805061176
C         7.48281065182981    1.80401404519360    1.75548345069120
N         7.47111499123339    1.44614267186332    0.46539092711496
S         8.60298727578008    2.46455771640443   -0.22101099258818
N         9.04331403928839    3.28465486861916    1.16525133839501
N         8.35108189401993    2.80974574446402    2.18472047918733
H         1.29267850031638    0.44779581913313   -0.99107129888717
H         2.68609495605140    0.21206539387882   -2.15371559302177
H         2.54581746149254    1.71869377783524   -1.30999749081189
H         4.27308513696847    0.40923435358429   -0.26601805652783
H         3.83334398319259   -1.93597192936882   -0.87130673050075
H         2.33279650594034   -1.85314026843115    0.01721650332954
H         5.11316946198762   -2.05635952129449    1.14074553343914
H         3.79969554916398   -3.05241201963060    1.37886578212365
H         3.43666445732248   -2.08438244437777    3.29982704944566
H         5.80504091550262   -1.30254380659103    3.17762742030534
H         4.75532481570638   -0.15265727037137    4.07565571210479
H         5.69845313858559   -0.04449619202768    1.14874508185114
H         4.60625365658769    2.00343525055776    0.79996348219010
H         4.24046232384553    2.07032795634962    2.59524434369216
H         2.26248065117984    1.48448499292487    1.15793792975802
H         2.30905843710927    0.19693811587581    3.33225013243324
H         0.49157216805886   -0.35080310121641    1.79621535647369
H         1.06776480631756   -1.78048937375198    2.37166812669166
H         6.29861090752632    1.72686320227135    3.47140137490209
