36
 energy: -51.096393687670 gnorm: 0.121731222935 xtb: 6.4.1 (79825abcba525fcdf90b791dcacef51065a7a4e7)
C         2.04463060363062    0.45599644805812   -1.17510155946084
C         3.10785382510039    0.00963980027205   -0.15276051949382
C         3.14182082482182   -1.52307523921623   -0.01395223139366
C         4.04206827238617   -1.99566182095459    1.12465073873358
C         3.83738664483602   -1.30920374610843    2.47710981519071
C         5.05288554973905   -0.46600575794501    2.89630266557546
C         5.24141293485732    0.67341292072105    1.87478688745791
C         4.02506166845043    1.57179963214431    1.57080447721356
C         2.85846830354490    0.61916274269048    1.24890305810792
C         2.64666656309207   -0.35430565052196    2.41183118243348
N         1.35800832627799   -1.02295235600103    2.26161924627035
N         6.36706769095399    1.45149250421119    2.39341360589612
C         7.36797545559478    1.95906668892692    1.63283968206477
N         7.65572718485753    1.60938341416198    0.37289206807766
S         9.11207838772867    2.33698205714309   -0.00005974458800
N         9.32075849079572    3.06614384622531    1.48753763068659
N         8.26957674908068    2.82800554527198    2.25065521880437
H         1.00328892199657    0.34053481792882   -0.85475966224668
H         2.30530245869715   -0.08568771187892   -2.09151270143667
H         2.17435671893305    1.52469842364931   -1.36577582646517
H         4.02214722226530    0.40563210988901   -0.61654266136905
H         3.55923118915794   -1.97628347375164   -0.92320037010894
H         2.11140154341383   -1.88611903063646    0.10865390238725
H         5.07755913813408   -1.77281367481651    0.83409959765193
H         3.94126599795054   -3.08490851879103    1.23525414094558
H         3.65161993897768   -2.05557163071561    3.26646555506239
H         5.96547249795395   -1.04367179652342    3.09381921455349
H         4.77117951539564   -0.13745734230524    3.90803905113165
H         5.67516454864336    0.33688902647958    0.92536658559515
H         4.39063733838798    2.03173119471686    0.64194612738278
H         3.82566480723588    2.28185134794631    2.38922549889801
H         1.92061558837692    1.19158949643470    1.29457326295614
H         2.71626632307561    0.19073582055459    3.36205391449787
H         0.59850086335745   -0.34814161086460    2.15941766083659
H         1.15287756839935   -1.70150881353820    2.99570167587583
H         6.25790030904602    2.00391389244477    3.24178650678108
