36
 energy: -51.095597139082 gnorm: 0.127099256764 xtb: 6.4.1 (79825abcba525fcdf90b791dcacef51065a7a4e7)
C         2.16900285430442    0.33473871717278   -1.23330239426540
C         3.22342937866566   -0.01093435476009   -0.16393157950535
C         3.29107300216081   -1.53832364661361    0.01535371174154
C         3.95224268115184   -2.03169694472499    1.29973595283123
C         3.74241468186898   -1.24520402172358    2.59575522410385
C         5.02219574538204   -0.46133033223311    2.93018847462921
C         5.31526028600859    0.59085299928585    1.84191669640804
C         4.12405863904832    1.55454745542861    1.66486844954461
C         2.96075944265283    0.65343228097774    1.21011124038420
C         2.58301586135600   -0.27726864161153    2.36596942605036
N         1.29108703025571   -0.90267200668642    2.10123813413653
N         6.45141749111867    1.29862059215405    2.43326433553482
C         7.48343907232616    1.78775590152035    1.70278590658735
N         7.45135029856276    1.80881638180126    0.36447569132160
S         8.76259457910287    2.73197711935744   -0.10228373733522
N         9.36242152942581    2.98829528058069    1.43481706693620
N         8.58132528605482    2.39289808977567    2.31767164470489
H         1.25485729463041   -0.22311564305605   -1.00204661434861
H         2.55608633730583   -0.11588376961835   -2.15432719488410
H         1.96833573986199    1.39003625298869   -1.43674594127924
H         4.13529033828597    0.41893533358569   -0.60160481737580
H         3.80559654872507   -1.93945803673127   -0.86822878233635
H         2.23679974127788   -1.84877549029782    0.04227053412679
H         5.01629042652735   -2.24177204008581    1.12654976106469
H         3.51073961170018   -3.02837136773733    1.44315050384558
H         3.60729877347215   -1.91897287588001    3.45740249347558
H         5.87398578760870   -1.15163738511558    2.87140318321365
H         5.03782279379714   -0.00598905932854    3.93185359011498
H         5.64180544539264    0.13994662411724    0.89701489164865
H         4.43801675890450    2.32264578395867    0.94416344006587
H         3.88351962265787    2.06815432712211    2.60937599635688
H         2.16485376437132    1.39349274060997    1.04227035414681
H         2.50858581777266    0.39609770100814    3.22961028390789
H         0.56357030046218   -0.18817039260307    2.15483992706416
H         1.16797397689373   -1.72909418471336    2.68712556072935
H         6.46432752171966    1.37649976378454    3.44844494145400
