36
 energy: -51.094368745048 gnorm: 0.123527471937 xtb: 6.4.1 (79825abcba525fcdf90b791dcacef51065a7a4e7)
C         1.55436929890040   -0.47928089616139   -0.63616559335231
C         2.93349028289333    0.00885859163495   -0.15180599859534
C         3.83888671206663   -1.23348506005788   -0.07132976851270
C         3.81878657632285   -1.93036162433959    1.28666849848002
C         3.61589377124947   -1.03470869670757    2.51096631242763
C         4.94732885179794   -0.37451650511763    2.90538986824525
C         5.42401891491019    0.66210989780419    1.86833431025915
C         4.24404251531944    1.53443487338462    1.39323518772806
C         2.88853918276273    0.84436921513916    1.15137223247832
C         2.48226798697240   -0.02407571711589    2.34537791511671
N         1.26226314864017   -0.82393400010492    2.39127985736220
N         6.44710420392944    1.53693037279645    2.44232537021971
C         7.51146642251967    1.93087845088262    1.70080088857385
N         7.72681779152685    1.54425600615380    0.43719719008836
S         9.18708513138148    2.17711228769476   -0.06932416624412
N         9.41016211173061    3.10141664451501    1.30328953274154
N         8.35997397106100    2.96817061791411    2.09284112618585
H         0.73531852593041    0.22150694827423   -0.44021906334090
H         1.21621259115385   -1.45279564222034   -0.26320447010238
H         1.66957705377614   -0.51215223041187   -1.72288363523592
H         3.33281559212991    0.66229378022953   -0.94009398728321
H         4.88787765922784   -0.94322194788824   -0.21872923904456
H         3.56727566646619   -1.97011684189182   -0.84087379258002
H         4.72198145733961   -2.49894761806648    1.54603612615183
H         2.92961804065133   -2.57084455398998    1.19715025729069
H         3.35785519229345   -1.78032876990147    3.28046196658901
H         5.73576218897745   -1.13627190779830    2.96561742335567
H         4.90672185178020    0.07974015766541    3.90684620976529
H         5.88285614005694    0.20245010140648    0.98460983574598
H         4.52788152896166    1.99003794857869    0.43416184646487
H         4.06554174082359    2.35669690937871    2.10440895363937
H         2.14549932065437    1.63390341930135    0.96737944113551
H         2.41809741266630    0.63614414909511    3.21992317779526
H         1.33486628330014   -1.45468412642694    1.59156156021274
H         0.37190968736568   -0.32969250636384    2.32501855413905
H         6.20968981878024    2.19000135950755    3.18660768676694
