36
 energy: -51.083262531882 gnorm: 0.121132925613 xtb: 6.4.1 (79825abcba525fcdf90b791dcacef51065a7a4e7)
C         0.80893480148857   -0.92248951268477    0.29799505716631
C         2.24326248875363   -0.52814708798388   -0.10456825724312
C         3.23888823833413   -1.70216323919979   -0.09733289204236
C         3.61188720538918   -2.16677558301225    1.30808783798080
C         4.31691464122835   -1.00859461308543    2.01788920961609
C         5.58693560088236   -0.44337322344530    1.36083926810433
C         5.44877230852702    0.86724594786129    0.56052665515151
C         4.07770456374940    1.19173082556860   -0.06708563196984
C         2.88151754881618    0.61950214819048    0.71634822523887
C         3.31875537292394    0.14466256031942    2.10496371219879
N         2.15674314387477   -0.19949816129855    2.91833514368627
N         5.94928728605177    1.91205291963286    1.45458666230013
C         7.25646923102169    2.24265062799443    1.59565804668188
N         8.25524780863667    1.37110946828917    1.40749635123545
S         9.66405425095396    2.18263363566358    1.78978499546078
N         8.91416828191984    3.61570228668470    2.20470128543103
N         7.61218791068718    3.53072775326727    2.00057435467234
H         0.24506558124931    0.01082419361245    0.40438984541629
H         0.80158775971186   -1.55254675148997    1.19474185651682
H         0.27515563778727   -1.47871469593314   -0.47724864765205
H         2.09377740000011   -0.21599348713301   -1.14766487400926
H         4.14780906471298   -1.42303760921983   -0.64716296636549
H         2.81492334155315   -2.51358842506487   -0.70597063106645
H         4.31126253269283   -3.01129543686074    1.24497706626570
H         2.77169636013390   -2.41959581864489    1.97066904914147
H         4.59408616430746   -1.35046851103407    3.02831236943454
H         5.99797987409876   -1.27847431944736    0.77845232244886
H         6.18318836184828   -0.16492423654546    2.24280394090513
H         6.05985002707601    0.69069781701050   -0.33289512608463
H         3.93187664585041    0.75413480889976   -1.06468494011070
H         4.06252115975585    2.29286402285389   -0.09903356124936
H         2.08151994767181    1.36658995314431    0.82212875790400
H         3.85138462498021    0.92754366558601    2.66015812203535
H         1.31655784777025   -0.16465180858223    2.33907639673614
H         1.93175986172274    0.35739169614113    3.74335072995590
H         5.24621950378548    2.62236485713666    1.64946133504760
