36
 energy: -51.092536432344 gnorm: 0.115755721447 xtb: 6.4.1 (79825abcba525fcdf90b791dcacef51065a7a4e7)
C         1.12377633851593   -0.30773237257221   -0.45610741312614
C         2.54835853532856    0.03023558922868    0.02472760693760
C         3.45177594955305   -1.20278866231857   -0.15727534391874
C         4.30415253581692   -1.75045372803456    0.98452910859063
C         4.22977474228298   -0.96075773812507    2.29338854272952
C         5.27374522596004    0.16807089768153    2.29721410972848
C         5.04761402023280    1.26018315401415    1.23256980538574
C         3.63408910012216    1.86123720353059    1.37291132706029
C         2.61648805750856    0.70596111996149    1.41653418447300
C         2.84503445439603   -0.35001484661006    2.50169953615334
N         1.84928207462912   -1.41709147201755    2.51250658339161
N         6.01198071027386    2.34247126490144    1.43289321484067
C         7.35936488585912    2.20828917938957    1.36602297668252
N         7.91762059406867    1.20564792592381    0.67637921409431
S         9.57036872869990    1.30416471081433    0.89585520599622
N         9.52816587560726    2.68440368629525    1.83464673677919
N         8.27876550992251    3.10473544093942    1.91440444202800
H         0.47244216598568    0.57311981829179   -0.44175342498783
H         0.64983798788315   -1.07220676500189    0.17010522705268
H         1.23052005805179   -0.67135390822638   -1.48162904426836
H         2.98425092285333    0.82820013041789   -0.59259454510157
H         4.08976517453337   -0.92131540853730   -1.00586467630550
H         2.81069248947147   -2.00067547401049   -0.55850544770111
H         5.34243720132198   -1.87482039538906    0.64864150252671
H         3.85167296445450   -2.73871947841750    1.15019635183054
H         4.52007701139669   -1.58743909693857    3.15225515213439
H         6.30956840209978   -0.18701102920991    2.21651117561631
H         5.13820426986350    0.73141667469229    3.23272630416621
H         5.09543715265022    0.94060390253545    0.18453843600745
H         3.31511852412449    2.51358961316715    0.54789342149816
H         3.52904794575798    2.47426871951583    2.28225408224831
H         1.59579388146009    1.08472654815875    1.57160202634240
H         2.83970096193970    0.09893193890159    3.50332617207956
H         1.76972446568158   -1.84929255973249    1.59080212727519
H         0.96051343022080   -1.04569886556847    2.84948186943491
H         5.58817670441742    3.17040992066111    1.84729787897900
