36
 energy: -51.091384179194 gnorm: 0.125541219171 xtb: 6.4.1 (79825abcba525fcdf90b791dcacef51065a7a4e7)
C         1.43999293558741   -0.01606254714803   -0.87961097114135
C         2.76765866968584    0.08985935657894   -0.10440561791990
C         3.34718122158299   -1.33592765402178   -0.07404247860610
C         4.54226248376390   -1.54186944663892    0.85308698239129
C         4.31520036389506   -0.97982931939215    2.25836934421371
C         5.30896652056709    0.16349425357370    2.52177611195322
C         5.02029439854691    1.31609113814959    1.53917709728723
C         3.56397087059787    1.82383485146717    1.52094258359183
C         2.63939029219065    0.60388031458979    1.35082695252284
C         2.88885669326044   -0.45859224286121    2.42498759968352
N         1.90171890606824   -1.52698643565488    2.30505035904389
N         5.92785442286544    2.41462939810478    1.87238673511538
C         7.22558233674783    2.29625735751573    1.49847371075714
N         7.55543140053556    1.36723537915554    0.59256796126253
S         9.22541080229455    1.35807647758841    0.56940361408465
N         9.47214357752317    2.47568396985912    1.78523529771361
N         8.28463648820764    2.88966008374368    2.18833832141111
H         0.85726602635146   -0.82146804400269   -0.41907415558165
H         1.74310254747555   -0.23767687174880   -1.90926750790387
H         0.91439398785155    0.93872289603504   -0.96586616179863
H         3.41019932615743    0.76118957195702   -0.69117086509601
H         3.62462224965230   -1.52540289606849   -1.11974172150048
H         2.52044698256453   -1.95324956276278    0.30545867387622
H         5.35730594964294   -1.02847805362452    0.32539765431253
H         4.84226803602628   -2.59962605619272    0.85263227238385
H         4.39915753138235   -1.78927378369037    3.00161064580648
H         6.29736772113071   -0.30196217931207    2.41250963748881
H         5.21018930810286    0.49801510721268    3.56544834446640
H         5.36983145559801    1.10540180793678    0.52122741107580
H         3.46033625139547    2.45632320584756    0.62809389310229
H         3.19376932157376    2.45359286496111    2.34562505012385
H         1.57761557450112    0.86334186044528    1.47182294625425
H         2.92874594742170   -0.11671303712133    3.46727596116478
H         0.97564053318807   -1.14879434565636    2.51002812994203
H         2.06212517983422   -2.24764147614463    3.00955064446332
H         5.79147062936290    2.88105311374512    2.76718943707111
