36
 energy: -51.086653937497 gnorm: 0.124262585131 xtb: 6.4.1 (79825abcba525fcdf90b791dcacef51065a7a4e7)
C         2.26519795976345    0.47465674220170   -1.08551277031423
C         3.31448425995024    0.03926455641913   -0.04421981791848
C         3.38412305530905   -1.49374671886742    0.07687431834112
C         4.27193134938977   -1.97130595893023    1.22314387918124
C         3.79834053018646   -1.25432914866943    2.48960384241903
C         4.87512931003306   -0.33349941123651    3.08688236431971
C         5.23204619351442    0.77770113971444    2.07933301236881
C         3.97577359175489    1.63936386456446    1.83781508549662
C         2.88992220400125    0.69180356981587    1.29455278726630
C         2.54624544369080   -0.39650772185686    2.31551673009898
N         1.38731611162066   -1.12662438264823    1.81142885393684
N         6.43246603075452    1.45047486599814    2.57717624468373
C         7.42241543601983    1.81314653086066    1.72489104641300
N         7.33753624018994    1.75825795978255    0.38985163648301
S         8.70927551687983    2.46448117084014   -0.24970430480577
N         9.35257660646247    2.84020097825601    1.24467469207749
N         8.58258032584864    2.40677514890302    2.22614763552061
H         1.22424586205417    0.18409368787816   -0.90569434662122
H         2.56109392948412   -0.05171032629891   -2.00015161560836
H         2.42290251583582    1.54027071934846   -1.27234313397017
H         4.28666474052826    0.39826208798122   -0.41003685356440
H         3.67615723442773   -1.82594345998036   -0.92847272000877
H         2.42095624838354   -2.00772387734598    0.20623485956266
H         5.31262469689757   -1.67924502296979    1.02825834394726
H         4.04528420115981   -3.03949312077291    1.35143983749633
H         3.55870620650136   -2.00950918314923    3.25572086917025
H         5.75379075886274   -0.95407222110672    3.30681246263417
H         4.66559567904281    0.22978828416579    4.00868250864784
H         5.51482543130858    0.45831667197678    1.06897803805703
H         4.22582133540147    2.33793657882909    1.02699282608062
H         3.60880944162235    2.27221861296754    2.66157336364830
H         2.00142323351977    1.25709625441543    0.97778844457781
H         2.43449431364817    0.03640362261670    3.31798221095792
H         0.72239390852915   -0.43285292597324    1.46613777465475
H         0.85827103452587   -1.74377772836632    2.42837906714613
H         6.80068481147873    1.29667352454406    3.51397054855586
