36
 energy: -51.093876419995 gnorm: 0.119150221897 xtb: 6.4.1 (79825abcba525fcdf90b791dcacef51065a7a4e7)
C         1.97096448239498    0.26906021170040   -1.19812678407812
C         3.09230987057073   -0.02688893562932   -0.18330766459775
C         3.20349514244634   -1.54578685180146    0.04079948359194
C         4.10050799667952   -1.88952040937311    1.22714496319296
C         3.70872827921342   -1.18743458096300    2.52939268523097
C         4.91726349235076   -0.41452693178950    3.08274576398810
C         5.36656166002523    0.70251122600845    2.11959002375624
C         4.14303041521869    1.52401158481282    1.66448240330522
C         2.93294301812264    0.70990796961124    1.16950603091025
C         2.52320585941810   -0.25524927924622    2.28552111849081
N         1.38009654591610   -1.06145105652189    1.86882936137198
N         6.43634781841578    1.60978018507054    2.53660415463178
C         7.48951076848863    1.88609663917897    1.72888043733320
N         7.59018364702495    1.65354976064876    0.41421913645824
S         8.96806368207356    2.42914577361937   -0.12369264840715
N         9.36859619198415    3.05069302662478    1.37344561098795
N         8.49522646509175    2.67545024930026    2.29021140866917
H         0.97265239194205   -0.00362334999968   -0.83846096576087
H         2.14644435670754   -0.20600728275281   -2.17008287898936
H         1.94444129908256    1.33768808232861   -1.42756192055494
H         4.06815030523469    0.28059752080731   -0.58458539043165
H         3.56145744257174   -1.98664846386235   -0.89934166819496
H         2.15184555187554   -1.84824152680024    0.14639931415168
H         5.12741331840122   -1.66233529640088    0.91064055449276
H         4.08300834926492   -2.96223016413926    1.46764483623323
H         3.36992097324391   -1.88482076050911    3.31266721349087
H         5.72983907123292   -1.15090952129262    3.13740327155801
H         4.85165821409867   -0.11540159346638    4.13969083596069
H         5.81984345830147    0.21881350076024    1.24588535002166
H         4.43154970334658    2.30794237141115    0.95022080584619
H         3.73795315158107    2.03877160555688    2.55030411453375
H         2.05989427182376    1.35603078990383    0.99735158743527
H         2.37172062541288    0.36278144709815    3.17990800953156
H         0.47968245902896   -0.58030565274244    1.88932067436750
H         1.28597924128701   -1.94353511698218    2.37327378881002
H         6.78626227249741    1.53781156645312    3.49012598817104
