36
 energy: -51.092490091929 gnorm: 0.127771937318 xtb: 6.4.1 (79825abcba525fcdf90b791dcacef51065a7a4e7)
C         1.30865597887156    0.11901970058237   -0.86836495585813
C         2.68148917120080   -0.07981107227639   -0.19705694801142
C         3.07217728713483   -1.56725364103927   -0.12986840752771
C         4.25645342527213   -1.76935206186504    0.81185689202000
C         4.16897377856291   -1.06948679777900    2.17009131909865
C         5.28860994240428   -0.04889125252926    2.43266075311871
C         5.10614405685027    1.07450884511529    1.39247305829867
C         3.70142279966029    1.71072456332157    1.36081602709121
C         2.62743150179799    0.62126480374518    1.18277729646395
C         2.84943763728755   -0.32496708679946    2.36610355088872
N         1.82556638247518   -1.33683375209221    2.60715463058278
N         6.02131293652041    2.16096210234193    1.74399177841851
C         7.35891819100179    2.11987065999182    1.52709483342516
N         7.93024220407643    1.57582879711774    0.44535791193724
S         9.57208986376869    1.79538189072906    0.65886287375583
N         9.47580390305274    2.60420222654582    2.11650100745612
N         8.20898016502571    2.68249560652867    2.48128741023390
H         0.58114656007397   -0.14222412465398   -0.09194719739640
H         1.06458499963562   -0.43376341270425   -1.78271779246574
H         1.01775545248773    1.16435977467708   -1.00234430801632
H         3.41732507926227    0.42571652761230   -0.83801215064908
H         3.29644305138803   -1.94373917175246   -1.13700534240925
H         2.19105417160743   -2.08362695834142    0.27704388579685
H         5.08706825913649   -1.28633424828036    0.27978979604684
H         4.48838387629892   -2.82921303325331    0.99005783270776
H         4.20454923538198   -1.82262623848852    2.97393966221190
H         6.23189392430386   -0.57538456412940    2.23632959715094
H         5.24085547513034    0.39761874020688    3.43728068687004
H         5.44159146788645    0.71043902011333    0.41384345346114
H         3.80021297409274    2.50991799188565    0.61282484684921
H         3.46644459496715    2.25860033226845    2.28729479971660
H         1.71285664454775    1.18924395241717    1.40700574161475
H         2.91966490671638    0.28210616041812    3.27789727027502
H         0.99905518994128   -1.00084245430015    2.11051049585963
H         1.54310489744140   -1.46192925151390    3.57975996604994
H         5.85250278745018    2.62056666890533    2.63679090163539
