36
 energy: -51.089074774484 gnorm: 0.126658414238 xtb: 6.4.1 (79825abcba525fcdf90b791dcacef51065a7a4e7)
C         1.53196333299470    0.14196857639769   -1.01080585150970
C         2.77793750791446   -0.03319899213030   -0.12101723588425
C         3.25499595101191   -1.49604713259399   -0.07489261334912
C         4.47300296897146   -1.62589062679717    0.83604090454221
C         4.23402284779400   -0.98900347168851    2.20699973177192
C         5.25744558155823    0.09451313879165    2.58481024672190
C         5.01734885049158    1.28381096351667    1.63337119784245
C         3.54899377145539    1.74825814686592    1.54830308379868
C         2.57207279824621    0.58756908156789    1.28277723058358
C         2.83692002437932   -0.40742933831887    2.41623947252993
N         1.85515618682364   -1.48739063336043    2.40549231944310
N         5.97915611508846    2.35843819683173    1.88153095424296
C         7.28218942719607    2.20739164280631    1.53917184588767
N         7.65882008828108    1.39490711721989    0.54390016903468
S         9.32031243880094    1.54991943658691    0.47414326396325
N         9.48307575004372    2.62686542252087    1.73979159643090
N         8.29342137290484    2.82494298549797    2.27787068471002
H         0.66781133679852    0.08888736643254   -0.33941435665297
H         1.35247754901733   -0.57179806681607   -1.82290372661104
H         1.45893139716265    1.11509214120976   -1.50376256412450
H         3.60321872192921    0.45299779560446   -0.65986769843454
H         3.60682666937768   -1.73621376899492   -1.08726430300891
H         2.51492680685536   -2.21041897941008    0.31313765922996
H         5.30939364782633   -1.17716902518496    0.28339077803219
H         4.69671093579060   -2.68404244934683    1.03383388377438
H         4.25648285562304   -1.78507495864504    2.96885439900732
H         6.25773603123566   -0.35399749388129    2.52330392570990
H         5.07409537824407    0.42461810355171    3.61840895777034
H         5.42059005763161    0.98162387909028    0.65927304343336
H         3.35427312664952    2.61139470404890    0.89635247900743
H         3.29376543231310    2.03056978010305    2.58218130625168
H         1.52229131227250    0.91323370369031    1.24774481565396
H         2.94373252316606    0.03062464525780    3.41700787180759
H         0.95012786823638   -1.21361386417463    2.79102613496359
H         2.12602799226650   -2.20325241837474    3.08044779028267
H         5.73613642072632    2.94327406321295    2.67885894995288
