36
 energy: -51.084916097804 gnorm: 0.132146370128 xtb: 6.4.1 (79825abcba525fcdf90b791dcacef51065a7a4e7)
C         2.01074484726886    0.16866452439936   -1.15852782771187
C         3.14437340959422   -0.13218681997820   -0.15891094114745
C         3.01475569533306   -1.64253211569627    0.10884517170154
C         3.80999888237798   -2.14760477087422    1.30996558465796
C         3.61557953831219   -1.29014129573366    2.56265167060209
C         4.92875010757945   -0.56095716554479    2.89131065199270
C         5.54634784393858    0.43860646301203    1.89293315303906
C         4.43347307577016    1.36478610129295    1.36122319918715
C         3.07717254575435    0.66061071017913    1.16974567783497
C         2.56730135166800   -0.20432683193970    2.32595373526120
N         1.27376108231310   -0.84327431377948    2.10506490562431
N         6.75361938566076    1.06985552917687    2.42725534264768
C         7.59934933325800    1.86698935771866    1.72923018834551
N         7.38515521765685    2.21108334236542    0.45319427354650
S         8.69749217698642    3.12061859208490   -0.03667203480503
N         9.48424206023573    3.00187567414209    1.43135214463056
N         8.78931938771202    2.30620495952078    2.31292238846522
H         1.38296599797592   -0.70185819174861   -1.37858863423919
H         2.40758546162793    0.58934182942401   -2.08951068338339
H         1.25295610678686    0.89861913379214   -0.86148916382373
H         4.11319150696750    0.10282864257305   -0.62150740472973
H         3.34439454063987   -2.27448441020858   -0.72681974927817
H         1.96689214786665   -1.81874492354513    0.39085231196134
H         4.84116210381332   -2.17788138873371    0.93299294721328
H         3.48609887806831   -3.14304391271260    1.64618325717190
H         3.32694256604474   -1.86710073495736    3.45621942537180
H         5.75194366429560   -1.18074682119420    3.27043987442268
H         4.64365694593593    0.10141267107386    3.72251519315875
H         5.94006230666091   -0.04399122368997    0.99022826036169
H         4.77923917120281    1.84811174780211    0.43666785029459
H         4.24394766053024    2.13490301709891    2.12590980797574
H         2.36987447984800    1.47291658178044    0.94790214744625
H         2.53500825672048    0.47862028471562    3.18466091758921
H         0.58935689795648   -0.12377601500670    1.86720061357940
H         0.96843767200598   -1.44140215917994    2.87344972065507
H         6.85071504971789    1.09211982237914    3.44061619759515
