36
 energy: -51.091335560733 gnorm: 0.132424330312 xtb: 6.4.1 (79825abcba525fcdf90b791dcacef51065a7a4e7)
C         0.93836546305281    0.09630677801625   -0.60109566466483
C         2.37946844152404   -0.15633852848890   -0.11710015029074
C         2.64145157001787   -1.67170187800257   -0.04872122694408
C         4.02341451505948   -1.80346266563725    0.58611560470945
C         4.26085978108947   -1.04216258097036    1.89237237604778
C         5.43505685520398   -0.04970740273668    1.87146689317751
C         5.25075001983100    1.18390511799347    0.96507672337867
C         3.78620062770137    1.66724111853332    0.98734307490720
C         2.66048559316730    0.63474013165848    1.18428222533966
C         3.03189766397439   -0.26725795894737    2.36468684396430
N         1.89748505474639   -1.11143502185564    2.72630160040092
N         6.10476897066147    2.25080415976917    1.48839138105528
C         7.45418366740001    2.14819588528409    1.56884100465484
N         8.19264509918577    1.27030623221450    0.87852808228691
S         9.78413840876026    1.66491271443689    1.19615434030917
N         9.37020959552281    2.76292529814812    2.38409438797394
N         8.07457771465551    2.99648149338453    2.48816599457175
H         0.62921092816353    1.08270647493346   -0.96411347928564
H         0.36679847482256   -0.29181717009429    0.24969920600511
H         0.76106870719529   -0.59645145850839   -1.42811522048846
H         3.10897220409608    0.24018403926787   -0.83712121616531
H         2.55566148609933   -2.04662157632028   -1.07752469659208
H         1.91547263460610   -2.16951544084080    0.60986301726161
H         4.77141668291916   -1.46036823591080   -0.14127807902958
H         4.33453527186408   -2.85042395038343    0.71232389278461
H         4.49565096308712   -1.78333713606374    2.67351907523913
H         6.40479476918434   -0.50587481737603    1.63262497934990
H         5.61579394000623    0.39419826743285    2.86201963673309
H         5.54536971541784    1.02741956665599   -0.07967167083032
H         3.47043868167368    2.21759996264338    0.08992456931673
H         3.73314656118553    2.42651168167408    1.78385987434136
H         1.77735564351974    1.20949472352839    1.49902741410305
H         3.33956926868611    0.39205496451298    3.18656410672553
H         1.21870388906098   -0.71089656793655    3.37552526801191
H         2.21646520506117   -1.94359161448946    3.22345508079040
H         5.64795000960809    2.84190605335052    2.18030068438259
