36
 energy: -51.085978673097 gnorm: 0.120894618713 xtb: 6.4.1 (79825abcba525fcdf90b791dcacef51065a7a4e7)
C         1.85177896840697    0.38377476498374   -1.26404740521452
C         2.91182779243435    0.10151645072281   -0.18169542690310
C         3.11808742082055   -1.41984223702838   -0.06961682819980
C         4.24367816716420   -1.80479701440490    0.88696854253151
C         4.07144766363749   -1.24519013064122    2.30098467214505
C         5.16467242006620   -0.21205945760541    2.61980080933404
C         5.19388644490621    1.01228399108532    1.68308224351380
C         3.76156805066584    1.58096850740687    1.61923602164993
C         2.65797909096369    0.56345389239256    1.27451430228164
C         2.75013209780128   -0.48335029859187    2.38834162819279
N         1.51383845504428   -1.25292466859923    2.48645079440888
N         6.11840997312467    1.95154558843715    2.31910431164287
C         7.36904594421236    2.02525519611581    1.80103367416553
N         7.64348108412129    1.45239369191790    0.62244871163571
S         9.19634774851255    1.91463395313504    0.21699743825649
N         9.48516297661190    2.80523818914634    1.59959647982613
N         8.40143935044834    2.78550268093035    2.35404658997930
H         0.97794440865479   -0.20788938479703   -0.96961656955255
H         2.20681457436296    0.00744790315181   -2.23022996222828
H         1.60410324427933    1.44160423100845   -1.38637076510064
H         3.85572954323991    0.54141884030670   -0.53293833045037
H         3.40092099912559   -1.78027594587561   -1.06784225644042
H         2.22724242358603   -1.93105610473212    0.32236854485225
H         5.16093268958021   -1.48471439751584    0.37460748261216
H         4.28788394401948   -2.89199091952872    1.04479075714209
H         3.97410299732622   -2.06355604050562    3.03273464477439
H         6.17191440313100   -0.64728468800828    2.58019803347555
H         4.99376415767006    0.20910181175719    3.62196168910199
H         5.68390781921231    0.79015236969881    0.72740222482877
H         3.72664970887628    2.33279673293728    0.81830189933959
H         3.62123012036077    2.09894223472748    2.58139713529999
H         1.71731678400162    1.11989263631476    1.39640036975117
H         2.91583003034050   -0.01147325779728    3.36543621455003
H         0.75665373756275   -0.60635374039881    2.71290969319878
H         1.60091104859399   -2.03831040453409    3.13219231976886
H         5.70869291345276    2.80314193342761    2.69823369587378
