36
 energy: -51.086938281226 gnorm: 0.142124254243 xtb: 6.4.1 (79825abcba525fcdf90b791dcacef51065a7a4e7)
C         1.94135871018972    0.49299367704596   -1.19345656134921
C         2.80992977418977   -0.04553987022867   -0.04001606886392
C         2.97220800380009   -1.57442771596692    0.03617183433097
C         4.15671393934420   -1.90199043387751    0.94162676132329
C         4.01130102454670   -1.20725739281079    2.29752716238566
C         5.15678488180067   -0.27309483022413    2.72102464727572
C         5.29563727498662    0.95471245039649    1.79878753970766
C         3.91112050300024    1.62057349996606    1.66183227570665
C         2.75214765600644    0.65943688451661    1.33767805879945
C         2.71714622696718   -0.40728207265789    2.43576187790075
N         1.52474934066899   -1.24650145343320    2.37101164384600
N         6.22370405346446    1.89433843301089    2.42908525536746
C         7.36482881209049    2.09519842386965    1.72523147585564
N         7.96288279298738    1.12232885200051    1.02637264571984
S         9.33222962865731    1.74026881958896    0.29665276981498
N         9.05803758395969    3.27902206792504    0.88421332956712
N         8.02149792028073    3.32720452891022    1.70110091499184
H         2.18136520457435    1.54122492162300   -1.40310138665968
H         0.88578418500893    0.43992390900105   -0.90341012009218
H         2.06648067836734   -0.07137392378408   -2.12143455095535
H         3.81001216917267    0.31554264231935   -0.31802836077995
H         3.16533887855275   -1.95228079107143   -0.97688729905146
H         2.03817086836504   -2.01597383903501    0.41194916201274
H         5.06262027235116   -1.48093182041664    0.48515556085750
H         4.28402600446762   -2.98958715365030    1.04050847187225
H         3.98164495330200   -2.05047663117014    3.00658189372923
H         6.03921087387419   -0.89969049527457    2.53601643464279
H         5.07632487030322   -0.09532617583734    3.80400080015458
H         5.71953955056406    0.57475754297625    0.86138217820174
H         4.11518797180903    2.33548668611730    0.85237811484479
H         3.69120713589383    2.18628309354705    2.58126486058253
H         1.82596364097276    1.24880485281173    1.40213288533493
H         2.76709964485325    0.05762759910780    3.42883852207507
H         0.60403358839096   -0.81456157827773    2.46253615810366
H         1.60728156918550   -1.99844582699268    3.05596609602887
H         5.89752558634466    2.79235437091163    2.78121941842941
