36
 energy: -51.088219927701 gnorm: 0.114725924782 xtb: 6.4.1 (79825abcba525fcdf90b791dcacef51065a7a4e7)
C         1.15411417344492   -0.25345864084494   -0.25674143811196
C         2.69487296083137   -0.23977464094576   -0.28383659889572
C         3.38054093322845   -1.61719515712072   -0.23683635721099
C         3.13704028237302   -2.09603288313445    1.19201707179681
C         3.78632569422504   -1.26456505756282    2.30077966585202
C         5.31751636906295   -1.12464684503688    2.30536596318494
C         5.82788982019610    0.05863134021856    1.45879429595352
C         4.82868068486468    0.80180164775067    0.54868808893637
C         3.32364585243893    0.63408900937627    0.82943742686941
C         3.15206726249021    0.12475839201453    2.26332917335612
N         1.81436404661761    0.04318920573715    2.84141967578893
N         6.52805757302157    1.02819692542916    2.30211381283158
C         7.32667946535983    1.95340723021950    1.71550527416851
N         8.06301910538089    1.77679524618738    0.61134967098985
S         9.13842059657591    3.05358334723795    0.55866715651406
N         8.53728519079321    3.82557095556776    1.91175311438124
N         7.54728103685521    3.12771052719811    2.43798876586113
H         0.76782457902930    0.68853940045955    0.14793479009657
H         0.63569191412115   -1.14939659279925    0.10341749197850
H         0.83492795113235   -0.18029056465380   -1.29985027190793
H         2.98586369821070    0.20464839077026   -1.24594301222731
H         4.43595184265354   -1.55075941155932   -0.53357763139474
H         2.87443189577183   -2.23880202355788   -0.98920295452396
H         3.52945122335382   -3.10606381499163    1.37138752528357
H         2.04586126303730   -2.02364395632195    1.30577457040530
H         3.48406587008002   -1.75845828554311    3.23852442443912
H         5.64211201023386   -2.11359202323064    1.95586508220129
H         5.70235649028918   -0.99679737476540    3.32833489690940
H         6.66844309854354   -0.28660848326626    0.84473620608868
H         5.01830695334734    0.48870738873972   -0.48763921100143
H         5.11613175032940    1.85840182083999    0.66998716904887
H         2.89610784893989    1.64335708964089    0.74047095667483
H         3.69054431032707    0.78368468246575    2.95665172480433
H         1.18586875629349   -0.69055671579821    2.51084915035589
H         1.31543081035283    0.93265087348694    2.87772487131906
H         6.07374236687402    1.41856219319792    3.12554330804985
