36
 energy: -51.088410089058 gnorm: 0.126148496319 xtb: 6.4.1 (79825abcba525fcdf90b791dcacef51065a7a4e7)
C         2.07627478192638    0.33695472414271   -1.21297059142468
C         3.13534619962201   -0.11980103330503   -0.19091327142844
C         3.05243553460538   -1.64684280064589   -0.01511119162264
C         3.90779677835190   -2.14509780446302    1.14691271096581
C         3.69577567642099   -1.32163385144983    2.41939816792193
C         4.96878561296940   -0.64321693799984    2.95169460308826
C         5.61896743970588    0.32786124987384    1.94591982776415
C         4.54413509057110    1.27081730850789    1.36748758959655
C         3.13907000587088    0.68575515898366    1.13174987148716
C         2.68499760860451   -0.18140372647092    2.30935614433512
N         1.26499509820357   -0.50575587728152    2.21618504241084
N         6.71467866067608    1.01893338179232    2.62659336841806
C         7.52160146253726    1.80152745967032    1.86873934184185
N         7.45796877954630    1.75167617913389    0.53232130128346
S         8.58148612405266    2.82417757146273   -0.08160149784480
N         9.06356563945624    3.38354628325870    1.41602203028045
N         8.44870875527215    2.71487868254683    2.37460223153183
H         1.13523623527171    0.47747967629706   -0.66979285862928
H         1.92538706817125   -0.43670967295839   -1.97445418453372
H         2.52745510259173    1.22551806047612   -1.66263825152533
H         4.17883825880608   -0.02732802552570   -0.52319231752775
H         3.40020656708881   -2.08387237821912   -0.96084996438358
H         1.99778891200881   -1.90988918488579    0.14958286863970
H         4.93914364961596   -2.16928153371550    0.77000229849881
H         3.68673958503236   -3.20075441191618    1.36039694036756
H         3.33830999194710   -2.07882431571850    3.13601366934249
H         5.69986610410239   -1.42195176772006    3.20589775368996
H         4.77271680473611   -0.21769161114907    3.94738439284042
H         6.10801879168442   -0.27570867433690    1.17176229326706
H         5.09513716230687    1.75528247247964    0.54916568399438
H         4.34218486538127    2.01523139347243    2.15413196249263
H         2.38813047776724    1.48745218532739    1.07981043784272
H         2.87190458291142    0.46895589890078    3.17361064195061
H         0.70246154987708    0.22487280647812    1.77754616212358
H         0.85319736146907   -0.61316398986731    3.14369820740677
H         6.54587816896105    1.41154121444934    3.55081682178821
