36
 energy: -51.092025172367 gnorm: 0.135770362416 xtb: 6.4.1 (79825abcba525fcdf90b791dcacef51065a7a4e7)
C         1.68668821158147    0.50903383784111   -0.98626900445425
C         2.84336490915349    0.04883514131759   -0.07787742181745
C         3.05372752394711   -1.47505114899849   -0.13404725057467
C         4.22794742012006   -1.77386978075005    0.79445441472749
C         4.14080981117276   -1.21979623505796    2.21841872467295
C         5.27871591506708   -0.19753470146905    2.37428443998262
C         5.08504256357769    1.11569339530467    1.58991555747757
C         3.65492342620490    1.67886272574237    1.71881068020282
C         2.64865335370283    0.56673062021261    1.36858164773509
C         2.78793009922456   -0.53899759323957    2.41875765003731
N         1.63627432505144   -1.43489448849683    2.38201759246736
N         5.97691686137098    2.24942483649038    1.83627579036029
C         7.28594915028966    2.19108554685888    1.48849486803836
N         7.86752902819041    1.19208405663214    0.81298891378062
S         9.49709249908340    1.54056140457245    0.70101529366457
N         9.32906824141326    2.95770580626805    1.56798694482206
N         8.09277072830314    3.23830116294546    1.93795459744036
H         0.75823484916258    0.14930771209533   -0.52919757363082
H         1.91315490484290    0.06884127518026   -1.96408507779032
H         1.49755534913567    1.58316061555621   -1.06236025607792
H         3.78306505289116    0.48422401481291   -0.44562241754553
H         3.31176314439982   -1.72794026518551   -1.17126757852237
H         2.23588695184517   -2.09995469294596    0.25225485734960
H         5.07958891555047   -1.33391758788375    0.25829079195848
H         4.45723647061248   -2.84907527698309    0.80902336891213
H         4.26972912855960   -1.99002416341862    2.99609829873488
H         6.21591607894413   -0.69619718827658    2.09407495021963
H         5.32321217531244    0.12948550168217    3.42404190078317
H         5.32466278094666    0.87723852892082    0.54659915119120
H         3.61476675323186    2.62557785137251    1.16196389372359
H         3.61027617173705    1.89742827599019    2.79769031166853
H         1.66234521232971    1.00503234926888    1.57932727821555
H         2.91864217389559   -0.06265977015169    3.39898936034818
H         0.82400138054230   -0.92634883230363    2.73452330156540
H         1.80252551767830   -2.31848352740784    2.86474470145853
H         5.69092259806930    3.04071922022838    2.40975983003016
