36
 energy: -51.093176962568 gnorm: 0.122326790468 xtb: 6.4.1 (79825abcba525fcdf90b791dcacef51065a7a4e7)
C         1.40637124309179    0.22547080679955   -0.87263547886343
C         2.72672209380005    0.12084514991036   -0.08486249477591
C         3.05187407947301   -1.38268994956669   -0.14226800129830
C         4.29544141004870   -1.70484546440447    0.68232673453158
C         4.20271445162822   -1.18912384526352    2.12027591524650
C         5.23378066223020   -0.08189843283263    2.39431518501471
C         5.11183917864526    1.27139286862382    1.66558686551511
C         3.64690013274108    1.75195956830566    1.71057237723501
C         2.66648160536977    0.61015894894284    1.38323674789151
C         2.82986538884525   -0.56154468586992    2.35551191277511
N         1.69122643269170   -1.46006361947226    2.19285508485243
N         6.08057678078851    2.31548656804437    2.00158682292692
C         7.36813449324029    2.20886545877795    1.59079772879157
N         7.86496797981768    1.16957041190819    0.90847102534700
S         9.50164525918264    1.43279583993601    0.70487456087591
N         9.48352539210203    2.89737828720558    1.50664770570345
N         8.26442330340206    3.23909308114707    1.88223052584368
H         0.62466762100064   -0.36383425883894   -0.38069866544573
H         1.57203161283619   -0.20963848146765   -1.86481363588189
H         0.98583458591780    1.22343974349204   -1.02269012745021
H         3.48982484661115    0.71973446051040   -0.60143005620534
H         3.29732701067734   -1.73890971595709   -1.15183308977789
H         2.22017852802418   -1.91769709758930    0.33798907220619
H         5.19528583198755   -1.29793652746419    0.20167325595203
H         4.34606197731915   -2.80213388741173    0.63491053764548
H         4.54952969049585   -1.97852072741635    2.80673682840264
H         6.22091166802526   -0.51404966779741    2.18373621447323
H         5.20213202989193   -0.00579685630236    3.49163911314166
H         5.35415491543044    1.09292546976400    0.61096835550724
H         3.52418914008325    2.71468274975309    1.19475597781573
H         3.50786396673316    2.00730807721795    2.77321608366624
H         1.67005015285642    1.04520011601174    1.54812908145236
H         2.85331321412386   -0.14696352617284    3.37158784354206
H         0.83938159097085   -0.90508799534026    2.09783543685179
H         1.68237681831621   -1.95228841723189    3.08674040191836
H         5.89479938298207    2.80219605419156    2.87647202734007
