36
 energy: -51.088665589211 gnorm: 0.121285730190 xtb: 6.4.1 (79825abcba525fcdf90b791dcacef51065a7a4e7)
C         2.06298821000243    0.44235090195601   -1.23900660220092
C         3.10169043360161    0.03895183020932   -0.17447571557621
C         3.13864407353922   -1.49140730030612   -0.01238834584440
C         4.16401652439927   -1.97043220911734    1.01198795233758
C         3.86471810934544   -1.29356624162196    2.35159155045469
C         5.04800718811584   -0.49262992213439    2.91945694438009
C         5.32776843017094    0.76784526753555    2.07669484211214
C         4.03829128328875    1.55589582660222    1.76808596996489
C         2.90678650779760    0.65967757539948    1.23090118526663
C         2.63569364473090   -0.38687147990144    2.31540398972940
N         1.35239811473857   -1.07796811642512    2.23904845968241
N         6.34845759817409    1.70140562456350    2.55433366036128
C         7.37650699654088    2.03538577995177    1.73610857024018
N         7.81024486459389    1.32367978872847    0.68830444070863
S         9.07155270468537    2.16041959834141   -0.01768471514725
N         9.17937191700064    3.29114637973204    1.20624429213998
N         8.20745409128255    3.10338409778726    2.08040813469279
H         1.05149591662457    0.21083850157774   -0.88739860892721
H         2.10606756377569   -0.17198430201480   -2.14560318387196
H         2.06709623627695    1.52067807109233   -1.41929277725987
H         4.03276029881780    0.42802695107951   -0.60986714023943
H         3.37252660216484   -2.04401122709202   -0.93232811428070
H         2.12581942797451   -1.81276761282022    0.26958819142330
H         5.20915713523220   -1.85159267989482    0.69594857884386
H         4.08353612868043   -3.06132570074050    1.12301453445646
H         3.63999472913855   -2.08833649648121    3.08131509624883
H         5.95172599591669   -1.11496719284809    2.95837277108851
H         4.66082812281715   -0.25002170077673    3.92052962193741
H         5.70759625158584    0.40655116184800    1.11337500254680
H         4.27869594507947    2.26076490233113    0.95980035050754
H         3.74589768087258    2.17041686923954    2.63446660821852
H         2.00438816085607    1.28778019829218    1.20876012235375
H         2.67311964962290    0.25049246889276    3.20826685642165
H         0.44687770154565   -0.63950886910356    2.41355510660431
H         1.39632980232927   -2.08543319529476    2.39550497091881
H         6.25032072326032    2.10724932138131    3.48303357213124
