36
 energy: -51.087772912054 gnorm: 0.130060953089 xtb: 6.4.1 (79825abcba525fcdf90b791dcacef51065a7a4e7)
C         1.90977657219421    0.22159891328830   -1.15190349916898
C         3.05496546545691   -0.22337928131838   -0.22163692413419
C         3.04058476392430   -1.72812632270798    0.10265684226248
C         3.96117994468742   -2.04193863683527    1.27918845671231
C         3.70702838107502   -1.21041178675575    2.53864664699760
C         5.04483986170268   -0.59284402106578    2.97797980675711
C         5.40689860447312    0.41348932404678    1.86734094034355
C         4.31709622599080    1.39449191390891    1.38882332501644
C         3.00366574192454    0.66789005200332    1.04381931309709
C         2.68422346766406   -0.09441549512155    2.33290792335931
N         1.38769900059722   -0.74423972976913    2.16845457826318
N         6.59774966047556    1.12617631576238    2.33148658913704
C         7.47931779070250    1.85467047360941    1.60343815500032
N         7.47201339463324    2.10004491212849    0.28727498390986
S         8.85071783639657    3.00331897533450    0.01760536793051
N         9.34134470887410    3.06280662597594    1.61257143198554
N         8.54420405210995    2.33173318364665    2.37029153958972
H         1.30549813837970   -0.63006930176488   -1.48334225563889
H         2.32243612506501    0.77056200564865   -2.00603027188888
H         1.12012053772061    0.82909110520392   -0.70167462681380
H         4.01701860314387    0.04912687573087   -0.67774039084084
H         3.36936614513590   -2.33315229700673   -0.75303449945780
H         2.03571860350569   -1.94928656471774    0.48986365417805
H         4.94855348472522   -2.12087252997709    0.80465127654900
H         3.74233383372982   -3.06354572718382    1.62164711184217
H         3.33077289033235   -1.88617512322750    3.32377881012901
H         5.88926909733306   -1.27220421886307    3.15386268834394
H         4.81715021442720   -0.06800045281959    3.91798487783847
H         5.78694940151306   -0.15537791061519    1.01017166194399
H         4.77230139167959    1.98941099193395    0.58457212509135
H         4.12982118054555    2.07093356017912    2.23799956758282
H         2.24073780286461    1.43417251728915    0.84362433335351
H         2.78338779563971    0.60466475873955    3.17331902697868
H         0.63410612668526   -0.05700080135099    2.11878834114916
H         1.19500427555750   -1.46608837491829    2.86357887801327
H         6.74215631790654    1.26429237878191    3.32993246515498
