36
 energy: -51.080598250272 gnorm: 0.125257442193 xtb: 6.4.1 (79825abcba525fcdf90b791dcacef51065a7a4e7)
C         1.29041878259976    0.21909571692742   -0.13809773573188
C         2.76393482241007   -0.21865799349397   -0.24755660423012
C         2.95071456002095   -1.72742805389914   -0.00597198930836
C         2.91408684169015   -2.09945047715697    1.47404760503852
C         3.94432129479223   -1.27585111468789    2.25029876267695
C         5.41558275110267   -1.43211959768566    1.83183379256920
C         6.05867990910977   -0.18392705841474    1.19484605236530
C         5.12643476420510    0.52668499561912    0.19236719596138
C         3.68067749016717    0.56781219454945    0.72168003444851
C         3.56723288360924    0.20389164606332    2.20478308165960
N         2.20124451294851    0.30022571726414    2.70984507383137
N         6.61199704115696    0.70914958352438    2.21353853588431
C         7.31316509409784    1.83204740761273    1.92133240323270
N         7.72202322363021    2.01969374808801    0.66031244543557
S         8.51768794133286    3.48745041527169    0.61492862992829
N         8.18975513949628    3.86587756706109    2.20785776170033
N         7.53616436117516    2.88760691350378    2.80773022989858
H         1.26881549274480    1.29613729034107    0.06154586327813
H         0.78403193251249   -0.26071394391501    0.70720455909725
H         0.74285344251132   -0.12041558846409   -1.02139481142181
H         3.10692346421078   -0.00466504811730   -1.26951649355931
H         3.93088192248976   -1.99031203074773   -0.42612107024400
H         2.13442407395984   -2.27966775926205   -0.49310452613661
H         3.10949664545239   -3.17814469391721    1.54154860298934
H         1.92140375776601   -1.80652044317972    1.84502586954635
H         3.87089379688306   -1.52407543924908    3.32158297245843
H         5.57094271300607   -2.24616536441147    1.11161260904017
H         6.04772331179539   -1.71585317460055    2.68670595931802
H         6.89836893079970   -0.50272662979668    0.56549967264424
H         5.09634278675019    0.11419328572352   -0.82591836420446
H         5.47811011986940    1.57064991208192    0.20676230971058
H         3.35222403670508    1.60621225133170    0.56946465383677
H         4.18105056788428    0.85841439307846    2.83697401844062
H         1.99565595790808   -0.60932045981162    3.12592847260779
H         1.48512747110009    0.55452144716067    2.02873966989306
H         6.41445379846392    0.44655152025048    3.17730323586432
