36
 energy: -51.095695714033 gnorm: 0.126270193464 xtb: 6.4.1 (79825abcba525fcdf90b791dcacef51065a7a4e7)
C         1.16202599738644    0.21201207688474   -0.75884028313956
C         2.58584519492613    0.01737386163734   -0.20232080604382
C         2.92413258839889   -1.48271486288382   -0.13209019905416
C         4.23363556503618   -1.65904809278396    0.63231074823859
C         4.16281276234329   -1.05274715143055    2.03575226711665
C         5.33903224182693   -0.10601115917519    2.32616880144874
C         5.20150373135388    1.14041761626016    1.42905498324066
C         3.75927585766930    1.68326986436314    1.36344581049849
C         2.64680059017992    0.62790762511228    1.21961627920790
C         2.83733939582510   -0.36885258662637    2.36637978177350
N         1.79950178370482   -1.39509882065033    2.36834087983643
N         6.08686624272770    2.18378788216155    1.94769925104023
C         7.42635707011446    2.05266697621415    1.78493479235744
N         8.00231959606463    1.13612491241571    0.99704819830049
S         9.58509836985574    1.61994999880997    0.77304750500245
N         9.46763196396854    2.98046131512040    1.73397458587995
N         8.22455871984003    3.13825692433221    2.15100074703687
H         0.51398149971218   -0.55213206865017   -0.31559670147973
H         1.15704308565759   -0.02235539328080   -1.82946065547232
H         0.77985455724271    1.21497458704346   -0.55070416777343
H         3.34000547926796    0.51158290617109   -0.83068047801872
H         2.94231917342451   -1.97603739726614   -1.11324431774819
H         2.12876060427517   -2.03767680725791    0.38559464634225
H         5.11052365698385   -1.26897702375849    0.09823732383297
H         4.47242519489372   -2.72852602280286    0.72202724711873
H         4.25128604807540   -1.96115851072312    2.65350468542117
H         6.30515511952996   -0.59274409375924    2.13848977319551
H         5.21878639554120    0.20462401904895    3.37495838310866
H         5.76593524322259    0.95403691419464    0.50738964396298
H         3.60015777862491    2.44367959015480    0.58600198201713
H         3.66876439709928    2.19232189742970    2.33628661303143
H         1.71988652587041    1.19418960095182    1.39131630119249
H         2.84392787601947    0.19779632452540    3.30643464918718
H         0.85464028661654   -1.01339778326735    2.43320504946192
H         1.93713192706229   -1.95433425770369    3.21078267683096
H         5.84826271393945    2.49295703457016    2.88807486464717
