36
 energy: -51.085837596387 gnorm: 0.131543995302 xtb: 6.4.1 (79825abcba525fcdf90b791dcacef51065a7a4e7)
C         1.16826084338575    0.24836457216334   -0.80001118761737
C         2.52736656349344    0.00589736460053   -0.11524817525036
C         2.90005161934004   -1.48152364774605    0.02010871915825
C         4.30423133507511   -1.60185539062568    0.60662376296347
C         4.18340304987362   -1.15734203697837    2.06610081019301
C         5.31146659204104   -0.12362082729971    2.21787762958902
C         5.10118636639621    1.14040372706314    1.36036020049352
C         3.68139780233012    1.72771107632288    1.49558185333588
C         2.59017698738376    0.66111242000681    1.28657928713130
C         2.85685453083073   -0.44165169209976    2.31502322389724
N         1.76881447285805   -1.40708962342976    2.43498382593089
N         6.09324797080090    2.16913869120110    1.67500011607614
C         7.43667552863294    2.09788738287081    1.50752998640450
N         8.08228868443727    1.16845399961696    0.79206882132550
S         9.69770577603608    1.54475684632404    0.98770996666358
N         9.41823211648911    2.96666921775742    1.81730621443792
N         8.14210611707810    3.14247546887904    2.10822881675706
H         0.30285705600897   -0.34569394173542   -0.48614244829512
H         1.36205399128242    0.04857781143499   -1.86006325942778
H         0.94970147819558    1.29839712581355   -0.58794304467415
H         3.19023969145593    0.53822981140310   -0.81170893637343
H         2.84739945607775   -1.90495627858196   -0.99196531843519
H         2.14322015419238   -1.98417743226999    0.63909359018084
H         4.97902665949718   -1.00838752165039   -0.02485843073800
H         4.64401746445693   -2.64475581760499    0.53075099041038
H         4.20474375505673   -2.02944636747915    2.73962541187028
H         6.25759595121856   -0.53237326037360    1.83934561752350
H         5.44314191929378    0.17987499206768    3.26738454311155
H         5.22951670863793    0.87739756828126    0.30340855684712
H         3.53126503337177    2.70719025913894    1.02014405434200
H         3.68520849110704    2.01238607307008    2.55986149668935
H         1.59636437322854    1.07833080883085    1.50473329839469
H         3.02272181770704    0.00320288313080    3.30468479848456
H         1.07720238988450   -0.99342219408612    3.06205502123969
H         2.18673609990080   -2.23550281246863    2.85979863113875
H         5.82359452411675    2.81696088050691    2.41285980155879
