36
 energy: -51.086124428858 gnorm: 0.133033672800 xtb: 6.4.1 (79825abcba525fcdf90b791dcacef51065a7a4e7)
C         1.94721161054908    0.22251535643479   -1.24099436531241
C         2.97697172188269   -0.05913129943627   -0.12963104669369
C         3.20159858354280   -1.57579184391764    0.00792092911715
C         4.29395009899401   -1.75384289315224    1.05923740598794
C         3.94201390768892   -1.17056290400704    2.42970822937923
C         5.06039517642845   -0.22306825917945    2.89405766824484
C         5.24074467622548    0.91924368060423    1.87429811269217
C         3.90854126234134    1.66935222841623    1.67037237805963
C         2.81840012289322    0.67744342156551    1.22339703603912
C         2.64006607597410   -0.37924021334989    2.31725228130661
N         1.45896467743669   -1.22368494118614    2.16823966944881
N         6.20953933854887    1.86789396705412    2.42473406493036
C         7.37582376806247    1.97006120514091    1.74116760091526
N         7.40990018292890    1.91162647438085    0.40401703705585
S         8.97541467667642    2.31229176063984   -0.01798221259139
N         9.55757221762436    2.43053508976155    1.54255659256666
N         8.59241184180002    2.15528689950895    2.40089524287483
H         0.96323572720936   -0.18953757140058   -0.99130118744142
H         2.36916836196671   -0.05569428081602   -2.21348232873347
H         1.77825266654871    1.30255962684431   -1.25732589971602
H         3.87363812916354    0.40920058179239   -0.55915503181862
H         3.56375891154006   -2.08790751217331   -0.89371023865019
H         2.24418436805901   -1.99447154259801    0.34947958922913
H         5.14418757006209   -1.21972739800676    0.61410876591008
H         4.62402715306319   -2.79116052658197    1.21374915354748
H         3.84285720183054   -2.02596304544249    3.11754205017373
H         6.04596631035574   -0.70193572128233    2.96378078351865
H         4.81590050762791    0.25506985827122    3.85453629522735
H         5.57404457363714    0.68749475924536    0.85547951071502
H         4.21212050305448    2.45404266797006    0.96322244336380
H         3.64325142615620    2.18808785950870    2.60540189894811
H         1.81680898315515    1.13059787566636    1.19525181242914
H         2.48125613401763    0.20882001111077    3.23037998118922
H         0.65033279206589   -0.76014346798654    1.75121438969185
H         1.10340196946922   -1.53439355934172    3.07291079179795
H         6.45021189762591    1.93595641403751    3.41178407747900
