36
 energy: -51.081290830610 gnorm: 0.134866488762 xtb: 6.4.1 (79825abcba525fcdf90b791dcacef51065a7a4e7)
C         2.01946689943976    0.30870959874271   -1.20420626986825
C         3.05428691306883   -0.27567840951022   -0.22313680595162
C         2.70874912871679   -1.72699443562395    0.15623418728307
C         3.71196917474875   -2.21466743448451    1.19831138366264
C         3.69791525809843   -1.34421771440862    2.45703479142949
C         5.11879939204269   -0.78596808263508    2.64030708919986
C         5.51799445491128    0.40629629571819    1.74786047405898
C         4.38985416783468    1.35728360856873    1.29848642427786
C         3.06791775363836    0.60740161051444    1.04900943117873
C         2.78117281003354   -0.12580039606288    2.36243803588252
N         1.39621990361885   -0.58234003013997    2.42383126101814
N         6.48658406083010    1.21959151629820    2.48397542931993
C         7.46752680135269    1.88661273071856    1.82765641380387
N         8.06401490283526    1.51573204526907    0.68783321824853
S         9.03673271498568    2.72959926337637    0.07972295138190
N         8.94331215953245    3.63396117285851    1.48028440575168
N         8.04296422248189    3.07901772515900    2.27114009043632
H         0.99056467277951    0.25780393227839   -0.83122953595985
H         1.99643723674446   -0.15173731109327   -2.19850964600482
H         2.31939252449604    1.35222950501547   -1.33234792416601
H         4.07768024453276   -0.32938608406077   -0.62014787678255
H         2.91489335702319   -2.40484411389805   -0.68304268809434
H         1.68001660515699   -1.70947222659929    0.54353166248595
H         4.67303650702878   -2.04299095453523    0.69512217538605
H         3.71804588444281   -3.29109070264497    1.42220557603650
H         3.54085060037265   -1.86768487821512    3.41409780397423
H         5.83892005996742   -1.60190709754763    2.49472018825491
H         5.27342395303329   -0.30974701657711    3.62021403611557
H         6.05370224096436    0.11093111541136    0.83760540599948
H         4.71210816790118    1.83886630710717    0.36457480864781
H         4.20774550116416    2.04475714250093    2.13989126654852
H         2.26167452005502    1.33282564164853    0.86719163973322
H         3.03151191664119    0.52429897199086    3.21069432119670
H         0.66099240888153    0.06495825162197    2.13554015893168
H         1.14839910362117   -1.09419636034373    3.27116971777313
H         6.24953660829838    1.72202373914592    3.33731818656110
