36
 energy: -51.087916133098 gnorm: 0.131223820231 xtb: 6.4.1 (79825abcba525fcdf90b791dcacef51065a7a4e7)
C         2.00438160628126    0.41419139192058   -1.04401811844449
C         3.12116693126941   -0.03922609805801   -0.08377742071214
C         3.05389485045683   -1.57335415489983    0.02375141771259
C         4.05501414643203   -2.08391280858682    1.05684883699118
C         3.80447473557316   -1.30981466058937    2.35309990882019
C         4.99491921243348   -0.51810357563626    2.91894313078824
C         5.38015419394329    0.58791614510287    1.91613391172187
C         4.23701858159824    1.55340652098019    1.54185634694018
C         2.95593731428469    0.75536595113339    1.23519747874801
C         2.66814208185098   -0.28934273308514    2.31716797674998
N         1.40597409946098   -1.00209355760440    2.14625768481256
N         6.36011233662640    1.54283275954672    2.43507169753483
C         7.40140054114006    1.95284402611862    1.66987223138375
N         7.58978573742654    1.70803736930131    0.36713351976887
S         9.06563794982066    2.40516905890533    0.01312882869183
N         9.32973263298935    3.09635338679372    1.51002176854415
N         8.32244735631126    2.78733488703655    2.30621602374544
H         1.00981695738528    0.04332183952231   -0.77265166394445
H         2.24035147170182   -0.09130995628009   -1.98739902544971
H         1.84260960850701    1.48094338125025   -1.22059518883756
H         4.08962132873903    0.20809735178918   -0.54068374818508
H         3.28115888061306   -1.97472499347867   -0.97305036598750
H         2.00786295686836   -1.83568097487103    0.23729033195844
H         5.06807835386540   -1.88288138118142    0.68320480772332
H         3.89537249678825   -3.12197768784653    1.38210016699441
H         3.45266425786396   -2.02975193563068    3.10978774082927
H         5.81770926378960   -1.15932897142834    3.26153951198333
H         4.64194354147046   -0.05201104260499    3.85118707747330
H         5.66642515735022    0.20354657274320    0.92967730128154
H         4.51104002694803    2.04942593148577    0.60013588531900
H         4.02776865525379    2.28827183979596    2.33553949828664
H         2.09839374684266    1.43364290247587    1.11736174828858
H         2.55115569862210    0.23878624345831    3.27227609977236
H         0.65800634522886   -0.43021181635735    1.75108455772707
H         1.07157539153229   -1.45414121882532    2.99785907115753
H         6.50026074506053    1.62616887061900    3.44017716126825
