36
 energy: -51.087262015111 gnorm: 0.135235645828 xtb: 6.4.1 (79825abcba525fcdf90b791dcacef51065a7a4e7)
C         0.95934836562531    0.04602277080974   -0.66961712547613
C         2.40607829115000   -0.05779650712765   -0.14898936889804
C         2.91556381168438   -1.50849656655359   -0.07461962593481
C         4.20386957441627   -1.80212804524956    0.68974232542140
C         4.20581171622534   -1.09645152509804    2.04778570498944
C         5.29423567994377   -0.04147327906010    2.30565654718106
C         5.17932721656494    1.13653526614961    1.31752499016769
C         3.75734288038822    1.73315380228262    1.28556644508117
C         2.67968927640818    0.63551820807816    1.20851718543019
C         2.86786386002618   -0.40835459003655    2.31297297325995
N         1.65012821798379   -1.20705829148233    2.41036139637677
N         6.11890999170959    2.22777983203182    1.57800468079437
C         7.47152332875891    2.17730835868387    1.50177877948946
N         8.16052678433724    1.35236821044079    0.70347092528778
S         9.77544799484576    1.59644446152971    1.05262409161964
N         9.55102240181255    2.92721526828354    2.03591065392693
N         8.25446598775841    3.05922157666524    2.24935186926832
H         0.87325406856258    1.11839597805129   -0.87685205887774
H         0.36108058388566   -0.40071057698728    0.13268326950797
H         0.89439929074701   -0.48980681735323   -1.62039456840314
H         3.09416646393578    0.40928887429364   -0.86746148403667
H         2.93650847805831   -1.97482389431819   -1.06883362741106
H         2.13987363380840   -2.07252986635897    0.46275192596056
H         5.04728234555064   -1.47822239636753    0.06519235250553
H         4.33716010499758   -2.89263691831677    0.73306276819506
H         4.44050542663378   -1.86371740114708    2.80335090998857
H         6.26069900652161   -0.52924965272081    2.12249357571524
H         5.13073341042375    0.32037556440567    3.33193395732073
H         5.29687934935392    0.68745156149763    0.32389878176822
H         3.72034154473354    2.44956191098479    0.45288955538356
H         3.66714559054019    2.37812545910380    2.17417298260052
H         1.73881941445061    1.14913912742234    1.45404395959312
H         2.91697593490023    0.13941698262689    3.26290557623210
H         0.96546088539458   -0.76751167301414    3.02736684796729
H         1.77737781338487   -2.12775467130504    2.83169291373174
H         5.80966146726920    3.07792804473220    2.04537696736861
