36
 energy: -51.093804965492 gnorm: 0.120098536019 xtb: 6.4.1 (79825abcba525fcdf90b791dcacef51065a7a4e7)
C         1.18090300428056    0.49536750572732   -0.52814637337712
C         2.60259755104943    0.28504963338151    0.02810007778522
C         3.05849732970271   -1.14074837732034   -0.33091571433477
C         4.12339755447601   -1.79202541917995    0.54773439687327
C         4.08668645166438   -1.27203067797954    1.98666546074585
C         5.29981524878847   -0.40385869692000    2.35914236055846
C         5.17606495477817    0.90419150874276    1.55229507381663
C         3.81987915279385    1.54803765977378    1.90618297424258
C         2.64082860117425    0.62813931486117    1.53780204731738
C         2.74537094791248   -0.65110584137777    2.37296986083181
N         1.68073448879702   -1.64900712025033    2.34080832201500
N         6.15709653904810    1.92659457881380    1.91801238404542
C         7.43626468456084    2.10710651121252    1.50683735208016
N         8.10954977682285    1.30813381352587    0.66965322463011
S         9.68664732344223    1.85690283927592    0.63697981320576
N         9.41932104382714    3.10294740603648    1.71590513523957
N         8.16023066627156    3.13575532310512    2.11296485992436
H         1.02398308844347   -0.19519845742697   -1.36411145486773
H         1.06010779827510    1.53990718928289   -0.83721966335816
H         0.42662546086043    0.29316163510012    0.23702526231996
H         3.27151968419436    0.95522602203076   -0.52979149405993
H         3.45298352953215   -1.05354811665606   -1.35225701638462
H         2.17288938564772   -1.78875550550120   -0.26471677937426
H         5.11412105450837   -1.56351921275442    0.13231356780382
H         3.94645943818854   -2.87605615696123    0.59695689929397
H         4.18362337180868   -2.14860388642058    2.64763402361858
H         6.19226939779826   -0.97007930192334    2.06174427778274
H         5.46317057469800   -0.13140262319870    3.41270564650332
H         5.28911820073591    0.75347135811077    0.47188306468219
H         3.88820080451491    2.47502297261200    1.31967565480531
H         3.84599564753911    1.95174362719770    2.93091950396162
H         1.71157901861558    1.12977957569621    1.84468663234186
H         2.76498795808818   -0.43804099349149    3.44956455240473
H         1.63056572466255   -2.08678884973416    1.41966959723071
H         0.81479563395935   -1.14234585618784    2.52745981417638
H         5.90637369528095    2.53204444697937    2.69736596659526
