36
 energy: -51.088453782286 gnorm: 0.126653599306 xtb: 6.4.1 (79825abcba525fcdf90b791dcacef51065a7a4e7)
C         2.07224760852521    0.42054114615165   -1.13347996490799
C         3.23940284851138    0.13319673982340   -0.16909366828763
C         3.46728232684842   -1.38770332413092   -0.10148568251583
C         4.21968569088074   -1.91128206317177    1.11915134676070
C         3.88064341835874   -1.28546683668445    2.47402051629203
C         4.98469480141294   -0.36922649318754    3.02693756429410
C         5.29645772661003    0.86047690289466    2.15061261120295
C         4.01069366755179    1.62238027509398    1.76939297619792
C         2.90433015643386    0.69356873542604    1.23521458711862
C         2.65221314250371   -0.39851519530878    2.27861874221145
N         1.52540139166323   -1.21902922804688    1.84578607889068
N         6.36758185411899    1.64991614849414    2.75967657813521
C         7.33607103765205    2.04611664537872    1.89771690793391
N         7.31943648998620    1.65807907770038    0.61642943065395
S         8.71180514098877    2.07178685888852   -0.20795341514077
N         9.32413440754292    2.81314611688453    1.15718744548895
N         8.52139523963684    2.71866302482824    2.20156483277273
H         1.07396611621863    0.22857931130781   -0.72491229956424
H         2.16688518321491   -0.15611159532356   -2.06067804046989
H         1.99260278436195    1.46835473827599   -1.43522958348766
H         4.19447947103671    0.56174764690004   -0.50377108771922
H         3.97329285596564   -1.56292446452717   -1.06044980770206
H         2.54088385576831   -1.97165004645199   -0.19838283011059
H         5.27838450627290   -1.61921138049905    1.10595516524656
H         4.16197107914552   -3.00726218311994    1.05320300642839
H         3.66864132875684   -2.06161538149087    3.22721725548929
H         5.90982705265418   -0.86929418775169    3.34251386731518
H         4.59745663849077    0.03785423120442    3.97311131367496
H         5.74342193214559    0.43997216392612    1.24166461364339
H         4.16992560548771    2.41363955749823    1.02339406908757
H         3.56725724318890    2.12477328176057    2.64387049278453
H         2.03631604226990    1.36715595009721    1.18876421281724
H         2.53634943510099    0.07084408461338    3.26407044060805
H         0.73077922711028   -0.63575509824849    1.57926553175472
H         1.24362478167481   -1.82408029042855    2.61773793540823
H         6.34472533155694    2.07443333041927    3.68492584939781
