36
 energy: -51.082616888469 gnorm: 0.127546724955 xtb: 6.4.1 (79825abcba525fcdf90b791dcacef51065a7a4e7)
C         0.94026200787729   -0.75330931515157   -0.15090716225074
C         2.45149166664184   -0.45158264403864   -0.14867387217808
C         3.22388792347197   -1.77215407313353    0.02200708317769
C         3.55208707868595   -2.16779729278172    1.45934907828447
C         4.08892546480627   -0.98995354758853    2.27589879988261
C         5.46703374330905   -0.52858197495131    1.77380630440423
C         5.56301567441025    0.80735476101163    1.01001806914945
C         4.28291703584018    1.28542535279364    0.29460884960401
C         2.94126181027680    0.69605653960264    0.76861649268580
C         3.08900639349053    0.16231687523838    2.19627050315371
N         1.80823953954570   -0.22520651492152    2.77915467660858
N         5.98898810395902    1.90621247111760    1.87750835780634
C         7.29303461928353    2.22360869509124    1.68608472997225
N         8.16527687436814    1.48651409922166    0.98720526125170
S         9.64919920512939    2.21605496790527    1.22214423173033
N         9.05207174071507    3.51574919420962    2.08377290250246
N         7.74029738735385    3.43636629343550    2.21411005973660
H         0.31844957346714    0.10025825269289   -0.44265108154115
H         0.64324614688174   -1.31367485398651    0.74293452303424
H         0.87500428081413   -1.49398384399666   -0.95243827565317
H         2.70947202697202   -0.11197481499745   -1.16156520744497
H         4.16378629293505   -1.67575434764199   -0.53804597905275
H         2.59081817320119   -2.56785037377067   -0.39594870501917
H         4.23380782596397   -3.02869641669750    1.43856188853392
H         2.60784529584890   -2.58075088917450    1.84240175961552
H         4.09554190315187   -1.41733945705613    3.29175029310785
H         5.86201327490312   -1.24466687072440    1.04118131409814
H         6.23892055295795   -0.39242846439699    2.54618304601561
H         6.35824038137861    0.68049721831144    0.26549639078882
H         4.41739308804967    1.22229992479322   -0.79437773808802
H         4.24042101639319    2.37691962423838    0.43806567078569
H         2.13791888192774    1.44481819119865    0.71097991666023
H         3.47314043814885    1.04215708701992    2.72839811612890
H         1.58227221876363   -1.19458970447696    2.55133612780828
H         1.01588336661621    0.33218088250003    2.45839699880001
H         5.42909277698289    2.73859107122495    2.05211247406273
