36
 energy: -51.089248375745 gnorm: 0.129896558551 xtb: 6.4.1 (79825abcba525fcdf90b791dcacef51065a7a4e7)
C         2.18799262148019    0.16513281574549   -1.28402129231121
C         3.24168309637122   -0.24445991943845   -0.23672511929168
C         3.14317055659641   -1.74372175797522    0.09815714342580
C         3.86415317861533   -2.20679075769678    1.36146686312162
C         3.66130068805543   -1.25452903757564    2.54227731502968
C         4.87340875012176   -0.46044089784337    3.05643798644246
C         5.48871655132102    0.32442298566717    1.88055660339858
C         4.43765742939383    1.35598932660834    1.42212446745792
C         3.12781104978083    0.65218663663684    1.02082419753374
C         2.67369543250563   -0.12352030652512    2.26056622479256
N         1.28498719781173   -0.55238870394276    2.12694937510791
N         6.76631553794286    0.84953622317799    2.36375125999441
C         7.49136526875726    1.75495354761412    1.66200845108963
N         7.24636903686219    2.22701319080442    0.43331646749555
S         8.58961210050332    3.12704854062686    0.01488354460220
N         9.25848645498299    3.11700378796242    1.54481048830807
N         8.57451171386535    2.31601366042258    2.34145013781382
H         1.26969380722353    0.24893947424833   -0.69237396611306
H         2.15629460077640   -0.56047777872243   -2.10479253287693
H         2.43935265347836    1.11871736919387   -1.75604257477548
H         4.17304802673622    0.00261669028692   -0.76525963133598
H         3.54640662481552   -2.25276662786904   -0.78763927492841
H         2.06707802390008   -1.89187099258101    0.26749004628877
H         4.94231073869683   -2.24513240178254    1.15548434606163
H         3.50939818283015   -3.21251639763419    1.62889427608661
H         3.38556952602599   -1.87571332880339    3.40989427704388
H         5.59152220641896   -1.14249919397747    3.53039510251874
H         4.53714914303057    0.24303873386430    3.83294218214847
H         5.74839419490625   -0.41971847002056    1.11792384670241
H         4.69037288442632    1.81246768423442    0.45479677879626
H         4.43269393630250    2.17001799929660    2.16447088942842
H         2.45670610036934    1.49568607866062    0.80298773554912
H         2.63951288963235    0.56783428794266    3.11244530485089
H         0.72631651511712    0.28494199822827    1.95539569786199
H         0.99734946039421   -1.03098183112696    2.98112012323847
H         6.96446252060541    0.75021618379563    3.35758061701999
