36
 energy: -51.082267046128 gnorm: 0.145351556501 xtb: 6.4.1 (79825abcba525fcdf90b791dcacef51065a7a4e7)
C         1.48682365753592    0.05809548702871   -0.79576457355467
C         2.87932614593063    0.17307092414693   -0.14570571382476
C         3.55321760117738   -1.20986542846728   -0.20042476017042
C         4.53413948681593   -1.62280557820195    0.89386628819052
C         4.14072362245520   -1.02548862826685    2.24690035472598
C         5.16527158711388    0.00622291502485    2.74691617043679
C         5.12766741832064    1.21439141864654    1.78971881131242
C         3.70942664555056    1.81411487629135    1.70061618310791
C         2.68766762708754    0.74017810274849    1.28258996757282
C         2.74785273876211   -0.40041338066165    2.30255628858793
N         1.75477947099606   -1.41815344729962    1.97346249947811
N         6.00915101843415    2.30419551990501    2.21018741978828
C         7.25299365662981    2.20237047458928    1.68065197895312
N         7.56854269387952    1.27141132675699    0.77164629455247
S         9.20398296831455    1.29860900774922    0.43393775128993
N         9.32658928354190    2.73513697364642    1.27627102716814
N         8.29803410988862    3.05583486453339    2.03999118740085
H         0.85563001872178   -0.61115228634037   -0.20074791636314
H         1.45927630668576   -0.46478406131180   -1.75858285077063
H         1.06107742254066    1.03599512822450   -1.03610158837145
H         3.49692331937782    0.94524771370106   -0.62544826705474
H         4.09830225475322   -1.33553934654921   -1.14564963157470
H         2.75337757738560   -1.96110461090094   -0.26745132801415
H         5.60904166439942   -1.52411974958207    0.69096488860476
H         4.45532306470894   -2.71689112885824    0.96881526570488
H         4.25296556620498   -1.84694263552540    2.97303520223679
H         6.18479037906043   -0.40092777988012    2.72859875982580
H         4.85108420761290    0.36767988478456    3.73764721843762
H         5.40869057386909    0.86603957994298    0.78848722952294
H         3.64061113111777    2.62105261630640    0.95759778967491
H         3.47069563339396    2.11967004690087    2.73182375695118
H         1.64316428183112    1.08251688487687    1.24878512182025
H         2.71552132280838    0.02541243284970    3.31372621038975
H         0.81300857372253   -1.09075449186067    2.19378905510020
H         2.01694813004394   -2.20000427374369    2.57460424022349
H         5.89004501252482    2.63722806347642    3.16503116382070
