36
 energy: -51.090981216159 gnorm: 0.122807776300 xtb: 6.4.1 (79825abcba525fcdf90b791dcacef51065a7a4e7)
C         2.07683454119735   -0.08160238565798   -0.94940220259384
C         3.25259243950850    0.30492710898651   -0.03122606607352
C         4.29101816191918   -0.82956743377649   -0.09627266378316
C         4.27359551970537   -1.81131093718967    1.07252005889666
C         3.88596124468368   -1.16999377945157    2.40695507079190
C         4.86221116872514   -0.19335252295780    3.08315847431669
C         5.13279985319644    1.02018577382023    2.17133690638037
C         3.75788682454204    1.70210208274146    2.01765306824175
C         2.74948683462213    0.73564321622731    1.36868127515484
C         2.54335213121559   -0.44625884783151    2.32026865469600
N         1.33782726290187   -1.23219691898975    2.07674606616984
N         6.24848685683645    1.89620001533815    2.53095018672712
C         7.28782718925990    2.01555910220270    1.66871720662931
N         7.44666590456578    1.14750059558962    0.66184474116043
S         8.86284979769950    1.56761048569502   -0.11750276384316
N         9.16461020124549    2.86581098849169    0.88837315645701
N         8.25933017363820    3.00373891068204    1.83994308353395
H         1.19739897585367    0.54705312450964   -0.77127819797834
H         1.78061724655723   -1.09949187923184   -0.67130649125728
H         2.37514212567088   -0.09425155562981   -2.00114458607567
H         3.68558405348481    1.25511536432312   -0.37400407610613
H         5.30273726626552   -0.41436141288063   -0.19820260238392
H         4.26633907356522   -1.31881719724651   -1.08045891309562
H         5.27050611839701   -2.24671187832416    1.22390658733462
H         3.59044327569954   -2.61120937061643    0.75264806231442
H         3.79835420659245   -1.96992277617736    3.16001243781585
H         5.83582206441681   -0.66817561795744    3.26246449524052
H         4.49249041879598    0.07638067641824    4.08388992550938
H         5.46407642134765    0.68991814822659    1.17938587514291
H         3.89939303737361    2.57206820749699    1.36107452832361
H         3.43716472165931    2.23475145956204    2.92714056079092
H         1.80150067473516    1.25261230539852    1.16037600652190
H         2.46338174451131   -0.05567927606819    3.34295625371900
H         1.34405468494128   -1.76920595706739    1.20827107710863
H         0.54823137610892   -0.58628192574372    2.04978920905267
H         6.12169370324578    2.64721927181908    3.20675863734973
