36
 energy: -51.092794206566 gnorm: 0.123256859512 xtb: 6.4.1 (79825abcba525fcdf90b791dcacef51065a7a4e7)
C         2.14489827076642    0.42941315194251   -1.25681837326721
C         3.11504513984959   -0.02834738569250   -0.15041454092173
C         3.17880860124816   -1.55287034171756    0.05305754673123
C         4.05516657259022   -2.02135144137487    1.21181656406577
C         3.81263714075104   -1.25710622711070    2.51541680281299
C         5.02642598432345   -0.40691852112748    2.92534438775806
C         5.23284776408330    0.76847023815985    1.94904355020413
C         4.00455930568174    1.63941838600487    1.61472155530599
C         2.84830106911275    0.72006459913839    1.17890832572048
C         2.64677250622667   -0.29126075249023    2.31094623675111
N         1.50233235342773   -1.16586597024067    2.07511879589374
N         6.33888696203359    1.57613646586009    2.46463323406916
C         7.37047371437351    1.98633776602646    1.68650452038572
N         7.42387120752172    1.86102360948315    0.35459141080175
S         8.92391798071981    2.44725795718366   -0.08772141941399
N         9.39546953674514    2.84784422344621    1.46319444760998
N         8.48117613401150    2.50734498311915    2.35323332650842
H         1.18847298012579   -0.08647152143840   -1.11733184381444
H         2.50926726539604    0.27957870330585   -2.27954306783731
H         2.00391112063327    1.51336306104676   -1.23480302958674
H         4.14288721433132    0.29074972011130   -0.37302165920631
H         3.57639422465824   -2.09180516218119   -0.81748035191169
H         2.19422930868512   -1.97338422134494    0.30279473049150
H         5.12162280227483   -2.03832841971744    0.94969922943051
H         3.85579137280347   -3.06783281637526    1.48380711183331
H         3.56797186485301   -1.98709864070938    3.30402746174970
H         5.90529894226619   -1.06494737706612    2.93564725025075
H         4.78269671044739   -0.08510188304899    3.94903524339674
H         5.59653582642061    0.29461333442957    1.02927274286313
H         4.39196673012306    2.37659526008200    0.89747251380376
H         3.76574675082083    2.32001372969721    2.44749047097432
H         1.88713967046509    1.25246087794721    1.13364405278184
H         2.60770062659410    0.34212613413493    3.20656447823951
H         0.62475099368865   -0.64657370613469    2.02170717791148
H         1.44953017881672   -1.88290674179858    2.79931419712845
H         6.65018739260500    1.62044833266219    3.43311245073320
