36
 energy: -51.096154643145 gnorm: 0.116342954279 xtb: 6.4.1 (79825abcba525fcdf90b791dcacef51065a7a4e7)
C         2.04160866316082    0.34518147803722   -1.19088894406544
C         3.08853986595745   -0.00680107034538   -0.11622506435213
C         3.24304673954359   -1.53419810366823   -0.00298700246158
C         4.19973020666049   -1.93150736348291    1.11821877950510
C         3.81492696705117   -1.23962221940570    2.42798451494788
C         4.91939601651217   -0.32894125256172    2.98918985229522
C         5.21470428763497    0.72705529516820    1.90522659169193
C         3.94563773603156    1.56962983099639    1.66325001322728
C         2.76012524843886    0.68785419427474    1.22838272441374
C         2.56101653068965   -0.37450990741170    2.31311348008264
N         1.32421977854630   -1.12924383036646    2.13703782739655
N         6.35715840694651    1.55130951244289    2.30131210099238
C         7.46638641679473    1.88583266292523    1.59730351077203
N         7.79699078043679    1.53353491067873    0.34865043646652
S         9.21712324444191    2.32851655192979   -0.02642241539123
N         9.31845463770312    3.09897737141836    1.45151274114851
N         8.33988640801155    2.74637057560802    2.26521663744529
H         1.11788061683746   -0.23058126368261   -1.06612280885264
H         2.42457313775444    0.30396056534040   -2.21695910636781
H         1.67411389287581    1.35421144315456   -0.98566812559924
H         4.04322058217322    0.42899225952523   -0.44257630237704
H         3.53113235618569   -1.94203617865447   -0.98126921487398
H         2.33378068485055   -2.03819052282701    0.35453762053823
H         5.26391355287597   -1.75124194186103    0.91489442430026
H         4.03229945232633   -3.01165979974130    1.23692117163028
H         3.52020736591711   -2.00510984685987    3.16407272397626
H         5.84194310704831   -0.84918559245452    3.27863500396300
H         4.65810838494732    0.22374577134540    3.90416455750847
H         5.51000217699746    0.23024892436126    0.97314810896422
H         4.03393549178444    2.40835214106094    0.95847427741446
H         3.64521704469896    1.92843197735582    2.66062354971889
H         1.89307760244430    1.36384324068871    1.20402944376447
H         2.46181959043394    0.14550080729339    3.27466765150791
H         0.62837045916218   -0.44451912459512    2.43639063954734
H         1.25372780847248   -1.90857820304690    2.79206709041943
H         6.16492509720955    2.05837448663313    3.16314442898695
