36
 energy: -51.088753024408 gnorm: 0.118015718389 xtb: 6.4.1 (79825abcba525fcdf90b791dcacef51065a7a4e7)
C         0.90196624811720   -0.98351300225524    0.31315685929706
C         2.31421403164132   -0.65391528776804   -0.20816900584404
C         3.31150650733735   -1.82013775501535   -0.08581783444351
C         3.69453892559344   -2.03907889585667    1.37553470791826
C         4.24908951451629   -0.82478061710178    2.12401196177755
C         5.54974641936060   -0.39729356279549    1.42423375194701
C         5.49591197656198    0.90169929660886    0.59536018053579
C         4.13304539080759    1.21694069664231   -0.05443357183766
C         2.87217589165372    0.57399382544329    0.55294199966220
C         3.20150204114900    0.28228011853457    2.01969009125013
N         1.96500556581755   -0.05675332491909    2.71713179197990
N         5.85842416232588    2.03726241714326    1.44421909760899
C         7.16626064593761    2.29440846406285    1.69192906927542
N         8.11123163306521    1.49917747458232    1.17502971158340
S         9.61240680253691    2.17456946936668    1.45746629907568
N         8.97593380427384    3.33690367036500    2.47336569178622
N         7.65676796354191    3.30214709855111    2.52469617783869
H         0.09348098301261   -0.29312124410527    0.04848040982401
H         0.87969903083368   -0.96378838535264    1.40873709043681
H         0.61728183473441   -1.95342226590131   -0.10342478514499
H         2.17110693173180   -0.52812329873558   -1.29054276611903
H         4.21643324006061   -1.65162776418420   -0.68504508590635
H         2.94495178435293   -2.74139089248083   -0.56071494292671
H         4.44348830782040   -2.83567774566436    1.47959098262697
H         2.76641956348189   -2.43722450980191    1.81019218188083
H         4.41859460010846   -0.93624136207625    3.20729462131944
H         5.90341311542099   -1.26317334837616    0.84917040009333
H         6.31803743178048   -0.22828458344939    2.19369964599090
H         6.29901309609591    0.90517368599270   -0.15150273984451
H         4.26133928989910    0.97333484588485   -1.11846238040272
H         4.02255936888132    2.31282249352213   -0.03032014894710
H         2.05263539628651    1.30571759567652    0.60047714675778
H         3.59169059795198    1.17076286433611    2.53270948283665
H         1.62574828155471    0.73823991455253    3.26078291646050
H         2.15940135195640   -0.84606875475909    3.33404827721635
H         5.16841492750962    2.40604114523589    2.09591916749839
