36
 energy: -51.081405251637 gnorm: 0.124262157745 xtb: 6.4.1 (79825abcba525fcdf90b791dcacef51065a7a4e7)
C         0.83553172341074   -0.50801486955245   -0.13414345289253
C         2.37606718902570   -0.46966462505238   -0.14592481592345
C         3.09819427309348   -1.82554579385004   -0.04715428441059
C         3.40002564423430   -2.15300245472718    1.41293825913573
C         4.21791133153460   -1.08158348579857    2.13777563104313
C         5.56881753009529   -0.83878498976020    1.44477894803280
C         5.67546627176839    0.55447877900690    0.79304733386996
C         4.37686821882217    1.02153604218212    0.10419685161487
C         3.08124585318036    0.54530608709587    0.78731128898881
C         3.32327626654845    0.15192290356337    2.24730219324847
N         2.10245918067936    0.00253206945008    3.03316484272980
N         6.03390173893033    1.50940178378635    1.84239294772917
C         7.23676591543153    2.13235745422126    1.78794465375521
N         8.32274516121480    1.49325157066648    1.33546238846686
S         9.53044080720465    2.64510739792104    1.27103375299860
N         8.64181950813905    3.85229463208720    2.00671127715657
N         7.38944943643369    3.46653665730338    2.17042244613814
H         0.47347311623490    0.51285485482718   -0.29870769315904
H         0.41736832410342   -0.88735650142254    0.80522879304153
H         0.53693931739521   -1.16316682785802   -0.95689975938786
H         2.55918623278941   -0.29271950932481   -1.21503381243259
H         4.06888610797133   -1.67907511988913   -0.53976467824072
H         2.53632883422651   -2.66527181873183   -0.48047216517222
H         3.92773981756516   -3.09121754234785    1.63109599722115
H         2.41067542797589   -2.27849604365660    1.87585304204975
H         4.50390391190923   -1.38914270634976    3.15673212825260
H         5.75100730514917   -1.56908694174869    0.64540936262524
H         6.36622936601105   -0.90401693030080    2.20028673899336
H         6.43628820055628    0.56618704810322    0.00323685164968
H         4.28695870263722    0.81685414520436   -0.97189888071364
H         4.50302306217336    2.11360799672739    0.17637252600985
H         2.42764189599374    1.42640737017943    0.86339191824072
H         3.92862676209913    0.91972903786566    2.74616298260075
H         2.20035787638862   -0.54285257072377    3.89085810293306
H         1.32149121865120   -0.25362198417183    2.42829407034116
H         5.32278295040403    2.07112258651048    2.30672396462842
