36
 energy: -51.087271702073 gnorm: 0.136719200262 xtb: 6.4.1 (79825abcba525fcdf90b791dcacef51065a7a4e7)
C         1.68207645953946    0.28399488674077   -1.08939164421845
C         2.86013466321963   -0.08961521090612   -0.16881928355630
C         2.86104353470014   -1.61100937429818    0.06569276878129
C         3.94750038028436   -2.07720914281973    1.03133742405915
C         3.90481038213697   -1.27337770376023    2.33298923296236
C         5.10720548721105   -0.33203013893890    2.51258290770183
C         5.22680138846382    0.87539596071280    1.56119915549188
C         3.86994068886005    1.60051275377566    1.45097618655665
C         2.72504959279572    0.59841170560477    1.21202943288972
C         2.68151531131875   -0.36106428334329    2.40467907033915
N         1.48061239804820   -1.18909323948201    2.45460272123865
N         6.25970610276233    1.80860211091176    2.01254634711597
C         7.52224454462244    2.03482651104303    1.57352491615855
N         8.18491389628479    1.46315591320585    0.56030751016608
S         9.60498333294859    2.31301832166094    0.33538896957681
N         9.41825012604102    3.09348061725710    1.79969070396165
N         8.21336633610544    2.98405005172528    2.32914454773260
H         0.73064804620834   -0.03291712809199   -0.64815069520569
H         1.77473666112441   -0.01173300445947   -2.14064804955286
H         1.50339565771130    1.35658615592020   -0.97567884668636
H         3.76851120747441    0.17414282271173   -0.72839052390377
H         3.05867991284706   -2.15783642743399   -0.86612338373154
H         1.85763289498962   -1.91015098204923    0.40077239523495
H         4.93125831421560   -2.11882011295184    0.54470464886256
H         3.72605122788013   -3.13889873486744    1.21196986435346
H         3.99733600549878   -1.94226813750826    3.20401242010033
H         5.98647943093707   -0.95911822474697    2.31468477580784
H         4.99314956439377   -0.10789154288434    3.58387465666201
H         5.51534952481951    0.63496916121223    0.53079989608011
H         3.84393769454036    2.37343214547822    0.67002810614369
H         3.66482426961259    2.09621884435630    2.41323824294050
H         1.76948343051952    1.14091621923599    1.25571074937219
H         2.78241687911235    0.20077079373547    3.34222790181849
H         0.66245718201732   -0.58009185608173    2.50365022612114
H         1.55359614626191   -1.86690415386542    3.21397104672311
H         5.93466669323251    2.43424233635842    2.74722123140952
