36
 energy: -51.092577243368 gnorm: 0.125232247918 xtb: 6.4.1 (79825abcba525fcdf90b791dcacef51065a7a4e7)
C         1.10050545685327    0.18061673962532   -0.59368294850876
C         2.55586900370931    0.03166706071249   -0.10933799648628
C         2.91063867943434   -1.46620207612415   -0.12212174011272
C         4.19158259523796   -1.76093884423361    0.65409549784487
C         4.24406598529392   -1.11584274153973    2.04094852832806
C         5.42172719958790   -0.12892455033960    1.98394333824065
C         5.15455077378032    1.24769051957206    1.34296002059924
C         3.70351494485126    1.74533223657320    1.50377701462849
C         2.64990871398232    0.63836287024888    1.31243866325817
C         2.90966610696452   -0.44524281657328    2.36278495371251
N         1.84827032273944   -1.44708167244158    2.36985587427357
N         6.04144543177841    2.37905899334897    1.61664475981207
C         7.38948817887859    2.26244702337163    1.53236559653054
N         7.98949255457993    1.25098044375994    0.89246127393275
S         9.63919934720365    1.46539462795513    1.04060214608100
N         9.50874844516150    2.89318377167489    1.89650574630106
N         8.24510010785350    3.16457100822245    2.16776798065151
H         0.35183620280249   -0.32474997307753    0.02635064306540
H         1.03668183651891   -0.30923862968642   -1.57202296701299
H         0.83199695764228    1.22527790525450   -0.77227659391759
H         3.15135845189265    0.61243049324797   -0.82762927142068
H         3.03657839037510   -1.77007284190522   -1.17005448708265
H         2.10789549957086   -2.02148463780975    0.38370592322367
H         4.99140473027998   -1.34842250038919    0.02446273272714
H         4.29882534748058   -2.85344701473123    0.71555664894518
H         4.55547323228725   -1.89608534539677    2.75432344518615
H         6.28138041916017   -0.68049915678903    1.58109403636834
H         5.73452994069163    0.01112164849737    3.02962701620595
H         5.20642017336083    1.11921752782440    0.25502990207811
H         3.62729735534500    2.56791098368197    0.77885252504582
H         3.46837696324626    2.09072145180986    2.52316993817037
H         1.74528339326081    1.21283502809227    1.55934076019001
H         3.02966006621908    0.09188075714556    3.31248874264367
H         0.91562844277660   -1.03168652046863    2.38695222821500
H         1.86968593618354   -2.09073458604929    3.16146613653771
H         5.74399462280055    2.86792517994117    2.45887771481060
