36
 energy: -51.094940089875 gnorm: 0.117817734290 xtb: 6.4.1 (79825abcba525fcdf90b791dcacef51065a7a4e7)
C         2.22813244001612    0.51652515077170   -1.14921018308209
C         3.21762198479755   -0.05786301681328   -0.11681114389784
C         3.10398838418897   -1.58670496066888    0.02235292365998
C         4.03741063087382   -2.00070052082409    1.15704710644919
C         3.72169788655368   -1.29884818277018    2.47992034842755
C         4.99481418372986   -0.60287624690978    2.98878288245986
C         5.42346832492756    0.50405013704215    2.00476985554324
C         4.21153802089167    1.43699993577183    1.80516010441893
C         2.99920456761495    0.68554967620303    1.22408541727532
C         2.57851430917545   -0.29817728925515    2.31962342853322
N         1.30026990375059   -0.88720703076464    1.93306511244394
N         6.50924041388938    1.31489956924393    2.55713056661765
C         7.44037394005344    1.85300243403294    1.73168747597522
N         7.85398126946239    1.33987877716665    0.56627743929751
S         8.91737640683507    2.42835186461381   -0.12210384296743
N         9.00257650653273    3.41325728605204    1.22358278683226
N         8.13357609779736    2.99863800265971    2.12744699072971
H         1.20979358853572    0.40317366985247   -0.76129234360626
H         2.22114090063584    0.00800456980882   -2.12005459124719
H         2.48070114595581    1.56067552752589   -1.35235667670277
H         4.24824149505852    0.17527082434091   -0.41898370779376
H         3.35478382872246   -2.18852725733405   -0.86154348945727
H         2.07538609542473   -1.90709073636309    0.24127586341407
H         5.03641448000876   -1.70012995241996    0.81357767266794
H         4.01011302927931   -3.08407550859575    1.34253584515175
H         3.51546313249904   -2.10661045632458    3.20078380913072
H         5.81177066582512   -1.30484255370851    3.20174111460710
H         4.70203489008671   -0.10681550694906    3.92639522877724
H         5.80957011245791    0.34010092636154    0.99144178326867
H         4.52816073120283    2.17657105734363    1.05633096967245
H         3.82669975801099    1.96353500416049    2.69308232410497
H         2.26169272040173    1.49204688323097    1.10175624635029
H         2.49088531128418    0.33763655382811    3.21007247562550
H         0.54209819008781   -0.20908460664362    2.02246270567247
H         1.04932917132985   -1.70278965451636    2.49275096038194
H         6.33427285749398    1.94055452030155    3.34120055060958
