36
 energy: -51.086835060778 gnorm: 0.129940043813 xtb: 6.4.1 (79825abcba525fcdf90b791dcacef51065a7a4e7)
C         1.28171248687405    0.04956458072646   -0.83965914855806
C         2.65436269593018    0.00209416117998   -0.14077644539885
C         3.05280950449731   -1.48192357993500   -0.04821099400314
C         4.23848991149750   -1.78903050719121    0.86285847518583
C         4.01027166279801   -1.20253127637148    2.25792116104688
C         5.21417074612839   -0.25128979903839    2.35746866658174
C         5.24096721448524    1.02129479425595    1.48734088638056
C         3.83783146264029    1.66140573603285    1.50930450864314
C         2.67944645020665    0.67967549485711    1.25156922161430
C         2.69933003152980   -0.42030350088873    2.31672335782252
N         1.47865176178272   -1.21670525375713    2.23938716982390
N         6.19159241635454    1.99022600655325    2.03411702237574
C         7.50260479172443    2.07912240174456    1.70055359470484
N         8.04642539376763    1.33856278884778    0.72670656074098
S         9.61044294845140    1.89057197313473    0.53027180776771
N         9.48221374161819    3.09059244466870    1.68425551154144
N         8.30595652883937    3.06093775966758    2.28390617927191
H         0.62323056787035   -0.70633484448779   -0.39766317749221
H         1.43558852407777   -0.09583333367247   -1.91500213362229
H         0.85781555206920    1.05483735644731   -0.76861349111460
H         3.30672376294878    0.56579353719035   -0.82232192920107
H         3.21661942049807   -1.75315322500707   -1.09985831309809
H         2.18969924011977   -2.01012707494640    0.38148505769679
H         5.14285933824740   -1.38353401975132    0.38956033521174
H         4.21878181980173   -2.88767031378236    0.90099967270187
H         4.05684341517393   -1.91196022493131    3.10006033845116
H         6.15126850406162   -0.81564543354219    2.26325461825100
H         5.10954368785078    0.12650755836710    3.38568810070693
H         5.56210572964503    0.77195388427116    0.46876990880471
H         4.00285854524230    2.53678795331381    0.86554022771169
H         3.65971054599436    2.10784709200739    2.50062109141654
H         1.68664540284447    1.14904383471432    1.30958036950801
H         2.66359357870570    0.15965704185501    3.24796244647838
H         0.66015717326550   -0.61332300279531    2.33246110890524
H         1.44683116923142   -1.89296400344611    3.00296824663956
H         6.13100101174591    2.10743677558371    3.04377726529284
