36
 energy: -51.084376179966 gnorm: 0.131780085605 xtb: 6.4.1 (79825abcba525fcdf90b791dcacef51065a7a4e7)
C         2.05251145908990    0.50558117476180   -1.15351194058921
C         3.10990057632285   -0.05949099276376   -0.18527601525743
C         2.92739524706498   -1.57235036629533    0.03286441476590
C         3.93870581170584   -2.06798402544555    1.06330049375713
C         3.88819984299083   -1.34675374204257    2.41220407051249
C         5.16078119130972   -0.56668909780803    2.78122838792103
C         5.40627740335020    0.66631047564163    1.88861668577958
C         4.16753853312809    1.50238225072475    1.50714008554834
C         2.95594067892422    0.59999202482281    1.20747330987867
C         2.68438687216892   -0.41011661467893    2.32588361113080
N         1.32659563715915   -0.94013585894177    2.24989238419063
N         6.39720619746593    1.55523974686555    2.49635431561240
C         7.44654712488303    2.03501114329757    1.78457932872474
N         7.68163319070777    1.55784915341955    0.55592216325982
S         9.05424955768190    2.34065047811808    0.01499881893849
N         9.18346094632892    3.27703095105972    1.39146759048071
N         8.31942656881132    2.97133034041238    2.34227414015860
H         1.09875089489123    0.18513855578185   -0.71992210843063
H         2.18979019093178    0.08261489462243   -2.15522797133776
H         2.02510576608807    1.59129660325054   -1.27913197733846
H         4.11782678903115    0.17936304210644   -0.55252214300244
H         3.03726766718534   -2.18882684171733   -0.86949145063042
H         1.91271164240232   -1.75871993945236    0.41270718895095
H         4.90196777369593   -2.08976263653543    0.53606744853105
H         3.65028875167669   -3.10887672351995    1.26875264646406
H         3.87585262516121   -2.15338253803940    3.16310640028993
H         6.01914139107956   -1.22802394537691    2.60408499362025
H         5.12561589096216   -0.40485024495673    3.86910910198431
H         5.82359826012529    0.15960213170283    1.01005100102130
H         4.54135335998702    2.11549990999310    0.67508861427723
H         3.87020757749470    2.15624361438216    2.34248740857483
H         2.04327974198635    1.21049376833947    1.14694630192565
H         2.76750010196547    0.15196432504186    3.26502938993818
H         0.67665853495813   -0.20433525750007    1.96909791450149
H         1.04687910783003   -1.10591386875359    3.21719318085387
H         5.96332402947208    1.94907019091335    3.32910117399151
