36
 energy: -51.092386612870 gnorm: 0.119702168724 xtb: 6.4.1 (79825abcba525fcdf90b791dcacef51065a7a4e7)
C         0.89165582791361   -0.75433302534088   -0.16821929997211
C         2.25245153158131   -0.03180042809084   -0.13595748028882
C         3.37043288871519   -1.02116845918992   -0.51133133951225
C         3.76999399809981   -1.78882703647699    0.74614690962841
C         4.07705759864492   -1.00985552645868    2.02723246622826
C         5.33504125813845   -0.12821064265858    2.09297852922655
C         5.25755195487771    1.03071959866809    1.07898241257789
C         3.82823419219424    1.59840465956766    0.96151403326554
C         2.58541998800220    0.71516184766910    1.17916669073828
C         2.87384581008334   -0.14961617421996    2.40956179279856
N         1.75109794599570   -0.98002619947413    2.83400091771289
N         6.13881038396227    2.10787967974714    1.53129854279570
C         7.48994116256143    2.21855060752535    1.52042900779663
N         8.24651648131733    1.50808429608063    0.67462829449905
S         9.86000013596156    1.71976035740892    1.05054770329204
N         9.51295800150726    2.83116580737498    2.24742277273391
N         8.21588030570108    3.03332435790772    2.39151553702106
H         0.16604210558420   -0.30662001865900    0.51980731345946
H         1.04202550219489   -1.80160026438601    0.11778983741634
H         0.60958785032723   -0.88554919961082   -1.21632684960144
H         2.23267624610062    0.80568330961636   -0.84734075544065
H         4.21138878429795   -0.40823680051166   -0.86271329157766
H         2.97611543775852   -1.72744681967277   -1.25583224859344
H         4.57276288819660   -2.48959435476811    0.48004563426069
H         2.89938942377772   -2.38350173407609    1.05801593003339
H         4.17167671853944   -1.75937491825702    2.82968166165496
H         6.25967279816535   -0.69517135260206    1.92228033280350
H         5.32239445695133    0.28898766407441    3.11116245927311
H         5.64697070018824    0.68944372720489    0.11219829894758
H         3.74121925559476    2.09424486586268   -0.01548716599639
H         3.80981777014644    2.39077319729821    1.72673196434455
H         1.83305346981590    1.46515129511215    1.46339609252005
H         3.12913238811715    0.44006565182732    3.29947286289424
H         1.57766603547742   -1.81375732745997    2.27054720962386
H         0.89721639894876   -0.44920827773711    3.00868107346400
H         5.80342209410046    2.60131491175313    2.35644087222773
