36
 energy: -51.088225409882 gnorm: 0.127715125426 xtb: 6.4.1 (79825abcba525fcdf90b791dcacef51065a7a4e7)
C         2.22277548678271    0.22845579109331   -1.25877770893522
C         3.20668980394479    0.00797755550992   -0.09337603715072
C         3.39051023001200   -1.50599248919215    0.11576904213210
C         4.05348963756426   -1.97436041219891    1.40855289077623
C         3.79200238142634   -1.12138316064115    2.65206367317535
C         4.94744180767698   -0.17852873731058    3.02640092880752
C         5.10965614555351    0.90433655355299    1.94085900172561
C         3.84388830579752    1.73893707293783    1.65750735417932
C         2.77233215531228    0.72865914148978    1.20674843951481
C         2.58388006664369   -0.22344862280839    2.39118043859428
N         1.37964450122273   -1.04249510302422    2.29489081547376
N         6.23215545952287    1.75196682658789    2.34458954155549
C         7.33341477104531    2.00259319535598    1.59469959484241
N         7.69189805195740    1.30454275734364    0.50991263128023
S         9.16536865517481    1.86800296025828   -0.03858407968660
N         9.33141926153828    3.00377096752624    1.17411063828282
N         8.26600212799047    2.97768831463664    1.95401279688974
H         1.51351144424785   -0.59754965081348   -1.38126178847482
H         2.84433842130315    0.30112368412747   -2.15853313387134
H         1.59438261706542    1.12301380729341   -1.24471321153818
H         4.21217581595338    0.33960650294866   -0.38809002751359
H         4.02429374370798   -1.96302821174348   -0.65611055169696
H         2.41051366084298   -1.98815072527275   -0.00963878781937
H         5.14715913514736   -2.05665381432491    1.34992330329705
H         3.60865143854657   -2.93536362976481    1.70426286569593
H         3.66166461829165   -1.75589572537208    3.54372653635267
H         5.87174670267042   -0.77067580534544    3.04981270211005
H         4.82136911929987    0.21133709196897    4.04768599250795
H         5.41748828112342    0.40304084570084    1.01526206312079
H         4.14630319854325    2.44817582535176    0.87425383743147
H         3.39103652423197    2.31956589454565    2.47698338215981
H         1.93156582548163    1.42442003531816    1.07126913081196
H         2.35128045769108    0.29206162122511    3.33191642454635
H         1.62504714726268   -1.85775431083352    1.73115660003471
H         0.56813441747735   -0.53290120462910    1.94394928567960
H         6.12853382583073    2.44660652080666    3.08185593323424
