36
 energy: -51.095536392626 gnorm: 0.125704454206 xtb: 6.4.1 (79825abcba525fcdf90b791dcacef51065a7a4e7)
C         2.12415213842210    0.45506006149001   -1.06175895234301
C         3.20795847758280   -0.02859797022981   -0.07875445481267
C         3.19249678535416   -1.56542668755824    0.00816709329547
C         4.02792872196686   -2.10042957759569    1.16835056562093
C         3.74985910742378   -1.33605237444218    2.46475699564462
C         4.96741988889592   -0.48750737614713    2.86682693986758
C         5.30449939666143    0.64018675427230    1.87083730086348
C         4.09854292334739    1.55492422288478    1.57429262200673
C         2.87459412087595    0.67432658416185    1.26032637659354
C         2.56679424703778   -0.37917862336248    2.32816933139237
N         1.28139099111318   -1.00879118971587    2.04247961718708
N         6.48141867766449    1.33979248326227    2.38745414375424
C         7.56118434408657    1.83378643177225    1.73323959080920
N         7.73027920368994    1.54300990887106    0.43732161734589
S         8.96457124295406    2.54709649409926   -0.07040366602802
N         9.21678235855496    3.29122380431418    1.40297149024541
N         8.37283574192806    2.81758877088801    2.30156223267501
H         1.12947714403909    0.26085391407507   -0.64552769924540
H         2.17066137930108   -0.06490598589047   -2.02542545668555
H         2.28936655793173    1.50459507882255   -1.31961531496026
H         4.16220773331074    0.28708144619681   -0.52326664262372
H         3.61810645975320   -1.97866746791167   -0.91619742793383
H         2.17900763191924   -1.97575338019579    0.12248555312462
H         5.09607779558842   -2.01130605503373    0.92869005459058
H         3.75312876601127   -3.15199023383988    1.33435588729202
H         3.50918047509822   -2.05903978091737    3.26101059568245
H         5.85749498122215   -1.11924802876156    2.98597339557410
H         4.75829961046888   -0.00410414080558    3.83300647910078
H         5.62845256135670    0.15021851930431    0.94467685049005
H         4.27478273855341    2.31894782761072    0.80411868426436
H         3.88497328664848    2.04296396614427    2.53863216524138
H         1.96462000897941    1.29060004791068    1.29879746391582
H         2.65111370395974    0.13219669419281    3.29575555822989
H         0.59922165376203   -0.25950465690983    1.91645982546356
H         0.90652262839497   -1.39240017062350    2.91064571790699
H         6.55109845694693    1.52306622974199    3.38664328865830
