36
 energy: -51.088388588722 gnorm: 0.129073247127 xtb: 6.4.1 (79825abcba525fcdf90b791dcacef51065a7a4e7)
C         2.32648539312709    0.50659759108995   -1.33469231462810
C         3.28409347006644    0.09129882795942   -0.20094947691578
C         3.25700409405662   -1.44175382360143   -0.06437468728462
C         4.16925095759941   -1.93715432897425    1.05481444521666
C         3.86006158261821   -1.27443819061519    2.39923778698162
C         5.06665806367563   -0.51786251335592    2.97877321691247
C         5.31526385456000    0.73867429056447    2.12050608837150
C         4.02507466000650    1.56118125154104    1.92580482459846
C         2.98093128493291    0.70052059068720    1.19020606283016
C         2.68190609515542   -0.30652582982545    2.30436225947438
N         1.42234425910907   -1.02571862477183    2.14139647810831
N         6.41210704768946    1.51544664746575    2.69933240659080
C         7.36621179973304    1.95885897851180    1.84435272288277
N         7.52785798230487    1.28826855973988    0.69686569922260
S         8.77380996990571    2.05147120642565   -0.11219365408791
N         8.99385314243012    3.23329451714399    1.04670449350367
N         8.13959025409977    3.10388043671654    2.04546786651623
H         1.27751804095907    0.62114033737954   -1.03992074208077
H         2.48087735769550   -0.16315720956476   -2.18837408249396
H         2.69787108667807    1.44789099029088   -1.74863538453923
H         4.32822295595302    0.32871824329025   -0.44846082039802
H         3.51768139918096   -1.91183528957707   -1.02220142885805
H         2.27206798678386   -1.88802584674908    0.13396622968665
H         5.18389088101858   -1.66450716926116    0.73467077938167
H         4.10534504554817   -3.02905300895314    1.16673364728462
H         3.55091163349941   -2.05798879371096    3.10996387110374
H         5.97293627229890   -1.13418514766014    3.04459134201724
H         4.81243975740352   -0.20056213302279    4.00132219285366
H         5.83425929235837    0.44425348507821    1.20031705844267
H         4.12632563815309    2.49555861661474    1.35602624510294
H         3.76221012895539    1.80161979164383    2.96831961755349
H         2.09091303418470    1.34055420768666    1.10331312286961
H         2.59540903893914    0.26109368477860    3.23986423636580
H         0.62504002537505   -0.44257762114158    1.88270973842689
H         1.16784232587409   -1.63779008382400    2.91727779146102
H         6.19223715905522    1.93493518937381    3.60072582035886
