36
 energy: -51.078646224014 gnorm: 0.132350709338 xtb: 6.4.1 (79825abcba525fcdf90b791dcacef51065a7a4e7)
C         0.75871871343159   -0.93636659028571    0.44990094266877
C         2.15057554396885   -0.58757857566376   -0.11218502701638
C         3.17455965020053   -1.73635821233017   -0.14958661591277
C         3.69383218758343   -2.13030569249300    1.23076180398472
C         4.38283246825959   -0.94599414047776    1.91263397923461
C         5.53599076025724   -0.39000609406741    1.06101998784606
C         5.40746707680259    0.94989849865818    0.30905631411147
C         3.94724790702931    1.19412269526863   -0.12352771261670
C         2.84144309983722    0.52515998541580    0.71418485089304
C         3.38714100631260    0.19631065780002    2.10665551239793
N         2.51954662708929   -0.07397347299366    3.24881077847651
N         6.00950771047702    2.07546061094207    1.02469389150527
C         7.28479280507888    2.23650181881341    1.45554681823154
N         8.24649712717351    1.31939409903479    1.61859791845558
S         9.58760118497685    2.05557787058438    2.28861659176518
N         8.83296586275153    3.54422123299755    2.33996560451060
N         7.60331404390535    3.53492166412162    1.85839392475906
H         0.02445802909060   -0.25144387501607    0.01162596149048
H         0.77938613040395   -0.64609611659121    1.50654508878756
H         0.39881594118548   -1.95940583704168    0.31144457826203
H         1.98763527178643   -0.23630734595031   -1.14072537223192
H         3.93116813610385   -1.48401979526106   -0.90472252844406
H         2.70585589374235   -2.60667434066398   -0.63069327219544
H         4.32123391054177   -3.03176948781980    1.23802331109122
H         2.75277571094283   -2.32657056061941    1.76437723087538
H         4.84394385325871   -1.33597238474514    2.83456135007081
H         5.78535299878156   -1.15154381520112    0.31041717264758
H         6.40138281131818   -0.36126859087921    1.74012501693647
H         6.04163658106033    0.76087409368967   -0.56552159976199
H         3.90538354560096    0.67182282180651   -1.08965952717451
H         3.69116975223243    2.24652214481903   -0.32508395364438
H         2.05641029898629    1.28216971277051    0.85555562315545
H         4.05628449167933    1.02593714207899    2.36896166040829
H         1.73668182950517   -0.67584759353631    2.98893280786592
H         2.01432687051962    0.78981651640475    3.44884671666318
H         5.43887731046487    2.91873767906362    1.03408642735862
