36
 energy: -51.087645601514 gnorm: 0.126044272928 xtb: 6.4.1 (79825abcba525fcdf90b791dcacef51065a7a4e7)
C         1.38613703427112   -0.41068943299922   -0.59031652267298
C         2.77756479055632    0.11831815036115   -0.19164519186844
C         3.82730111762779   -1.00490787184043   -0.26945136147202
C         3.88944230419737   -1.91696258356144    0.95304400436863
C         3.87949454331288   -1.20162154036879    2.30598636162391
C         5.18537554681777   -0.44636254554270    2.60331061149771
C         5.26497401831033    0.82954777191594    1.74131935970633
C         3.98324267736338    1.64693963919279    1.48045604744056
C         2.76134575828373    0.74498671390306    1.22447470154312
C         2.69979762566444   -0.23542387862555    2.39917014055819
N         1.40022459340973   -0.89767873558953    2.45227865275950
N         6.30551940505859    1.63503721620116    2.38157885490408
C         7.42654031447695    1.96401079320990    1.69382224160913
N         8.01188941155233    1.21982286123915    0.74719758561811
S         9.36670912901534    2.07622863323024    0.27763996005370
N         9.21939379854701    3.27853675444524    1.42695437751785
N         8.13771574967422    3.07309454123335    2.15620568143159
H         0.81941837315641    0.48225578185998   -0.87636131127368
H         0.69189696923324   -0.93067818887033    0.07962626203056
H         1.52465882112367   -0.99735106985300   -1.50242906393228
H         3.01775638958767    0.92029310630260   -0.90367072123683
H         4.86044110349365   -0.68340857048300   -0.45818727956591
H         3.53743414145336   -1.68773764197823   -1.08081908979815
H         4.78742022542879   -2.53685620067778    0.82778370611124
H         3.02816433747538   -2.59639570429552    1.02668824123077
H         3.72060140276440   -1.96205532190381    3.08774731970565
H         6.04683170510493   -1.11818032062740    2.49340183538915
H         5.14811744395449   -0.25711749087691    3.68669004817489
H         5.66326447620950    0.55056721282349    0.75830244363137
H         4.12435597360132    2.24398502153130    0.56854361636592
H         3.67521113953201    2.38297379526786    2.24013742724524
H         1.89800668657551    1.41089867044408    1.36776728483352
H         2.95096765486871    0.28016755960040    3.33507432945039
H         1.44915054278947   -1.89745763027553    2.25049980762220
H         0.71295114889986   -0.41256123885908    1.87460163868004
H         5.91565409804300    2.45287394478484    2.84630634167447
