36
 energy: -51.090840905619 gnorm: 0.128620676082 xtb: 6.4.1 (79825abcba525fcdf90b791dcacef51065a7a4e7)
C         1.99636210029444    0.15497711901824   -1.08535265930472
C         3.17715600073917    0.20265451497325   -0.09625624476394
C         3.66506607995263   -1.25569555203842   -0.02700506824225
C         4.52210687277128   -1.62189036647217    1.18195427821882
C         4.00351592382545   -1.04280100756364    2.50028039500788
C         4.91437349565863    0.07638321550103    3.03123071374017
C         5.04634911422729    1.18550459211200    1.96833645387123
C         3.63595904303599    1.78486050382448    1.79344592792242
C         2.67155993398415    0.69891617377741    1.28086725146374
C         2.61795139511851   -0.42527052191234    2.31924719590887
N         1.58709046840285   -1.37012442447409    1.90107384597785
N         6.17770208628297    2.00356050608980    2.40686247856909
C         7.27557109504732    2.06987494832360    1.61426761547678
N         7.54272565588024    1.09509302626094    0.73621517714540
S         9.02896005673752    1.45703348726859    0.06572425745846
N         9.32781806311897    2.78100115147873    1.03833094346790
N         8.26135490660806    3.04629982445982    1.77066577177632
H         1.71569592303390    1.20767940989561   -1.20105575798760
H         1.21576736717839   -0.45199256207684   -0.61265762457367
H         2.25603560142951   -0.15449290543043   -2.10127954115947
H         4.00353146964172    0.81772753341598   -0.47917264131436
H         4.29461810180401   -1.40089838873465   -0.91522895885354
H         2.76414321677367   -1.88572089876055   -0.02874130991040
H         5.58623004039932   -1.39343944270809    1.03439192823994
H         4.44243637468579   -2.71822158506977    1.20568305871025
H         3.86074186257196   -1.84268758847944    3.24489693738304
H         5.88955468045236   -0.32696497105659    3.33431104166969
H         4.44076756452364    0.49896260346721    3.93013946918630
H         5.24352758547367    0.64790254565811    1.03297964109176
H         3.77771929414916    2.55210154142912    1.01936217508905
H         3.24703912409184    2.27142490788747    2.70214933378248
H         1.66907305821272    1.15094865977638    1.27732358819635
H         2.28597327109539    0.04566595265231    3.25350997076957
H         0.75215380945350   -1.26925186479419    2.48018678508835
H         1.87860071382667   -2.32592464404383    2.10810579679180
H         6.24417654357393    2.59798391403183    3.23091673320075
