36
 energy: -51.083369820531 gnorm: 0.120296396174 xtb: 6.4.1 (79825abcba525fcdf90b791dcacef51065a7a4e7)
C         0.76005950319547   -0.93582938831510    0.33550775242255
C         2.19694908906978   -0.51549349353398   -0.02990325541545
C         3.05035791476631   -1.79637395418711   -0.00391093726380
C         3.57706361706782   -2.00638229863958    1.41336741870431
C         4.43310381968520   -0.82742147410323    1.88188789813063
C         5.69478276106854   -0.55994026721411    1.04477189803171
C         5.54488528017850    0.76714243770601    0.27425631522028
C         4.11663729130026    0.99051955828051   -0.26353991829756
C         2.95063795006906    0.63705913202845    0.67857949570986
C         3.50770908415641    0.37185548444270    2.08009346394622
N         2.63198849122154    0.10737376375994    3.21739510754297
N         5.91981067889699    1.99232943415953    0.98124141302088
C         7.16716208118989    2.24356171549023    1.44912754273360
N         8.27188118082239    1.61926666801365    1.02204575444833
S         9.50759923607040    2.17135358994625    2.00064300926717
N         8.55757752720158    3.21768423553610    2.88992428278350
N         7.30842274193364    3.19420952089503    2.46201936466889
H         0.01999600235163   -0.16857667810704    0.58843487834838
H         0.77947592653077   -1.55098111804405    1.24236622713348
H         0.35807693487491   -1.55635328127133   -0.46989251027799
H         2.14578925223028   -0.12909560805351   -1.05748079305178
H         3.87547943428486   -1.81634303188715   -0.72857433239570
H         2.38066719302172   -2.60788054476010   -0.32260887869099
H         4.20488214168510   -2.90398464220058    1.49384447236399
H         2.63722667873020   -2.02897661373902    1.98349778766626
H         4.75171755197160   -1.03373257221139    2.91657521115614
H         6.00570696516983   -1.31262227175542    0.30834692068855
H         6.60373016787746   -0.42769316899494    1.65077371696793
H         6.28042126090851    0.79073218447371   -0.53889684844679
H         4.07651929744552    0.49654380720244   -1.24452868787374
H         4.07250765691356    2.07068329854280   -0.47577663409179
H         2.38353456746931    1.57921389290363    0.68658469496016
H         4.11184425311578    1.24014222024825    2.37324267588562
H         1.89245670589578   -0.55024030858643    2.96579467573757
H         2.20807287409167    0.98192679214628    3.52859773266949
H         5.24898015531004    2.59070854871833    1.45952201593379
