36
 energy: -51.090979229085 gnorm: 0.126966375745 xtb: 6.4.1 (79825abcba525fcdf90b791dcacef51065a7a4e7)
C         1.24894070803462    0.03762040148096   -0.92737482922414
C         2.57958812054011   -0.10088089922428   -0.16248665403331
C         2.71871317184494   -1.61620197744946    0.07007117619625
C         4.08128949660229   -1.80534992119116    0.73174261597656
C         4.14013620588756   -1.13971921980003    2.10860050297372
C         5.32856433675346   -0.17107911829547    2.22486743326392
C         5.21523877298959    1.07355316773049    1.32189469725133
C         3.80713646874860    1.69454656719682    1.21879538655924
C         2.65795783086115    0.66993084766651    1.17843823386598
C         2.91137473310141   -0.26804033326492    2.36203125565468
N         1.78785092153979   -1.18030468792375    2.55113465174610
N         6.06828203927702    2.12616844292854    1.87488513329356
C         7.39116465841295    2.18792932370963    1.58490620519020
N         8.01636549769511    1.52710675455147    0.60256976169828
S         9.63601485205511    1.92268804673770    0.70107395446669
N         9.46281981039574    2.72466920376167    2.15537789533805
N         8.19851990727540    2.83988637877266    2.51912522166856
H         0.51548681321779   -0.62844427403016   -0.45967187920362
H         1.43020086876944   -0.11144581631713   -1.99793773616739
H         0.86920395956671    1.06215061857031   -0.88933160747364
H         3.43839108295085    0.20368461555016   -0.77692421487998
H         2.73743923236092   -2.28079143053567   -0.80418935885527
H         1.89226766838464   -1.94360657869621    0.71690269612010
H         4.84361260555107   -1.44400321687350    0.02845417711644
H         4.32034337555949   -2.87297545582204    0.84074509670440
H         4.20721972705753   -1.88644484685147    2.91641075722860
H         6.26339468228932   -0.71530883561669    2.03663347985068
H         5.45316029868092    0.18037334021778    3.26017892071724
H         5.67149140769375    0.78313918337566    0.36780825708150
H         3.79032898284509    2.40265986061529    0.37840649002201
H         3.73773858839051    2.36570516345884    2.08970042657216
H         1.77176358327834    1.25463582192308    1.46497916546533
H         3.08885832623275    0.34495442525431    3.25510155766473
H         0.95763950742264   -0.60112767797600    2.68518425189392
H         1.97396534074202   -1.87033882483267    3.27956366221229
H         5.84940691602213    2.15747439629313    2.86883539229395
