36
 energy: -51.095234227277 gnorm: 0.124866780767 xtb: 6.4.1 (79825abcba525fcdf90b791dcacef51065a7a4e7)
C         1.89213581696835    0.23386320369912   -1.20085946358144
C         2.99916874060527   -0.16504693781263   -0.20576756891764
C         2.85394385824679   -1.65736905030265    0.14283154233578
C         3.85105625158153   -2.16887727371668    1.17932876510285
C         3.79728533269921   -1.35638931946841    2.47518247402785
C         5.07847804119538   -0.58358782512268    2.82939452625414
C         5.42604145209416    0.52430239937882    1.81495334837911
C         4.26251190339046    1.47210645114712    1.45874997354036
C         3.01144971155892    0.64174082778796    1.11609279198041
C         2.74250331063913   -0.26180000264109    2.32281741499297
N         1.39983220766127   -0.82975448199782    2.25243185709057
N         6.52755644392453    1.30746611058742    2.37602327920191
C         7.48060163653178    1.94387021297850    1.65171996381049
N         7.79456226501833    1.68721144654978    0.37574878429660
S         9.06113884068895    2.72190514106288    0.03715698087257
N         9.19922074169825    3.33628077570139    1.58365179848165
N         8.29978434382381    2.80113845275980    2.38905742595079
H         2.08835003682204   -0.16032962837977   -2.20408167669891
H         1.81207691447315    1.32481579458200   -1.26863806867454
H         0.91135066627593   -0.09764926167481   -0.84947729899210
H         3.99395781907019   -0.12708812197672   -0.67137472120329
H         3.05603030524283   -2.21176265359144   -0.78354316500447
H         1.84046917086410   -1.87931186240153    0.50643490353313
H         4.85406859692035   -2.10804822186819    0.73594557000270
H         3.50267596253439   -3.19851477949558    1.34464775591270
H         3.63050512242053   -1.93521744089481    3.39811212514771
H         5.92895198713521   -1.27723756750298    2.79668532027781
H         4.95907738480092   -0.12073537081602    3.82056754720161
H         5.89075615811356    0.20081760191393    0.87570602883297
H         4.54306366261062    2.12618889041658    0.62123740871833
H         4.06305825144481    2.22303985187161    2.23981513066243
H         2.11587088094343    1.27317362687873    1.02358848354931
H         2.79061034611102    0.39290877977710    3.20252174108795
H         0.71718712046468   -0.07038898744673    2.24732999258470
H         1.33481244485284   -1.23847238045999    3.18523227958548
H         6.53422707236363    1.77381413990948    3.28117437635722
