36
 energy: -51.090352856111 gnorm: 0.143519055087 xtb: 6.4.1 (79825abcba525fcdf90b791dcacef51065a7a4e7)
C         2.15078700548478    0.14296497948076   -1.27722441240871
C         3.20394957275599   -0.32815795106476   -0.25558315065508
C         2.85973555654722   -1.72616245544799    0.28915256998212
C         3.68966507225004   -2.17445614267071    1.48934007198371
C         3.63284048486269   -1.14422746204540    2.61967836030685
C         5.04291289829313   -0.65461598871017    2.98862209841747
C         5.63553823860650    0.10894682526246    1.78733984818665
C         4.61368714724913    1.17218460423928    1.33527770806537
C         3.22709751761116    0.60228685811244    0.98220066108085
C         2.73046761260634    0.05206600283867    2.32217015991753
N         1.31788611920197   -0.31154132332078    2.27025357722683
N         6.78681655372423    0.84367385346624    2.31290106120587
C         7.52716543106572    1.72740749905787    1.59958556971820
N         7.62208085699173    1.84821110273457    0.26956865505874
S         8.72839741957542    3.05899747933252   -0.04588606187977
N         8.83123307008932    3.52488788805636    1.55428305658304
N         8.17234281804376    2.70794282099608    2.35584762336928
H         2.50713791542229    1.08444109366323   -1.70963576234392
H         1.13228223253026    0.16786325725763   -0.87323304482162
H         2.18270999728386   -0.66167245625360   -2.01671678977470
H         4.24787391903214   -0.33636248260563   -0.59908110886076
H         2.91155298424681   -2.51867131501864   -0.46953442015179
H         1.80411122022710   -1.77378519901319    0.59244498971079
H         4.73454543498127   -2.23861941264804    1.15702892712860
H         3.29955811967081   -3.13399069370824    1.85807113145817
H         3.20795965121958   -1.69039126397124    3.47748845062706
H         5.69260959425907   -1.52223034603480    3.16373728572991
H         5.10344718141987   -0.10794140501263    3.94171986991369
H         5.86595846003476   -0.64501987510562    1.02495646440702
H         5.04725415738013    1.50310494980857    0.38109123865325
H         4.50607253509897    1.92796774291743    2.12960539082074
H         2.62349752300072    1.49604526435308    0.76728480147266
H         2.89767986818898    0.83193425973213    3.07628098141699
H         0.83163034956096    0.37269574021514    1.68884041868759
H         0.85844626313543   -0.34287589908789    3.18092787155284
H         6.73952628257402    1.22287345231698    3.25672031941373
