36
 energy: -51.091765615338 gnorm: 0.123297261666 xtb: 6.4.1 (79825abcba525fcdf90b791dcacef51065a7a4e7)
C         1.33566897898301    0.07941734813057   -0.72592398502676
C         2.72461808646431    0.07984300555826   -0.05833171629696
C         3.22792802889686   -1.37426873245784   -0.10163595835336
C         4.46805939189611   -1.51704751011072    0.77693610912588
C         4.29063064064332   -0.91578787910242    2.17309904929079
C         5.30988751689427    0.23089911206563    2.27492102939074
C         4.98529640462273    1.43166812136225    1.36381915223994
C         3.51687869212886    1.79257407926526    1.66797527712487
C         2.57071932698134    0.60984714288904    1.38865937893800
C         2.83900655160068   -0.50137876630703    2.40753217837451
N         1.84975604637641   -1.57225083883444    2.33746972864844
N         5.98773422492905    2.48265847642829    1.54275501920125
C         7.30493613911237    2.19049481744178    1.41031531046776
N         7.84716809706901    1.58974646430746    0.34371628973713
S         9.48184920679967    1.46525655469609    0.66273294027564
N         9.42046965225278    2.17521208806320    2.17282100071597
N         8.17910447384935    2.53596259890892    2.44284497173117
H         0.57759793553193   -0.37470496764577   -0.07827896325504
H         1.43742275964954   -0.46954679042938   -1.66903877236779
H         0.90093292348618    1.03993689375325   -1.01526160780438
H         3.36885812499531    0.68694361805953   -0.70965340214375
H         3.50017104016267   -1.58161022818983   -1.14530957147923
H         2.44666982692720   -2.10656656687776    0.14730689534591
H         5.28659287432968   -1.02424523441915    0.23520597933389
H         4.81092352202638   -2.56036322063299    0.82974882673142
H         4.45888518326044   -1.71553011410748    2.91253104592865
H         6.36458117328485   -0.05615290872503    2.17124691324879
H         5.30639098029665    0.60334463111678    3.31038472705021
H         5.02250922410584    1.05898657003995    0.33303717939798
H         3.25373775449284    2.58004271204385    0.94782909019659
H         3.35717910572129    2.09182598598725    2.71615940196464
H         1.53976468765558    0.98392800060724    1.46941864305964
H         2.79286290246479   -0.10119784541208    3.42859226427986
H         1.07376349923289   -1.33291929989683    2.95651925099609
H         2.21012582227011   -2.41707579808561    2.78221567930909
H         5.73090359039335    3.01913139319753    2.36922848671224
