36
 energy: -51.092097072619 gnorm: 0.124048414304 xtb: 6.4.1 (79825abcba525fcdf90b791dcacef51065a7a4e7)
C         1.64272194099301    0.29928237094235   -0.95640078165277
C         2.94980017899254   -0.01125008778328   -0.20143377530781
C         3.15383365268527   -1.52945414333673   -0.04956637258658
C         4.23102154486944   -1.94395116338174    0.94946253881061
C         3.91433099761301   -1.22961800799342    2.26540330018590
C         5.07962831181650   -0.34874026193505    2.74527795212984
C         5.27388711033398    0.84957919186208    1.79469601191921
C         3.98137501493835    1.62626978575763    1.47038348548726
C         2.80634876746532    0.67386224472256    1.18002015831162
C         2.66595099107459   -0.35014403556344    2.30988835935740
N         1.48503330478548   -1.20635365300708    2.25859867584148
N         6.23473887275752    1.77990460146010    2.38861410303830
C         7.34953525337119    2.12007425819148    1.69620218319760
N         7.73234603604088    1.61472588343425    0.51695395276832
S         9.31952332527976    2.04567268038059    0.22608494581308
N         9.45101422318511    2.96096774597984    1.61645012755378
N         8.33344516083124    2.89241584108173    2.31672249450228
H         0.71931498494254   -0.06251240962557   -0.49081839815472
H         1.59329069794149   -0.22655663875997   -1.91672927689078
H         1.56498990450876    1.38782712580089   -1.02226053500877
H         3.84045585318063    0.36016729840450   -0.72737846356995
H         3.35704013031294   -1.93181396088699   -1.05115261797338
H         2.28104556918417   -2.04747889892126    0.37291236560665
H         5.23757212447923   -1.77124904860654    0.54529362344447
H         4.14863664177405   -3.02201286108351    1.14908292809636
H         3.74840396240388   -1.95921372359100    3.07460976615297
H         6.01004538776668   -0.91932777186941    2.62577997435688
H         5.05739923859326   -0.03197438461699    3.79888040008085
H         5.84400296801293    0.54187286133836    0.90978221124259
H         3.94722772387053    2.28959513117897    0.59471580339058
H         3.76870196772762    2.27470854074309    2.33527821257537
H         1.89451236012234    1.28201076471430    1.09037849247680
H         2.68811560833707    0.16099071855663    3.28101532412111
H         0.64416047408630   -0.68483555262316    2.00637248400956
H         1.25196517326895   -1.57367104260650    3.18171930518595
H         5.88541399968781    2.55370503987374    2.95077824034805
