36
 energy: -51.092190337067 gnorm: 0.131294134377 xtb: 6.4.1 (79825abcba525fcdf90b791dcacef51065a7a4e7)
C         1.35023237675987    0.34312658221065   -0.88340504965259
C         2.68546013813487    0.04609520855570   -0.17361755561485
C         2.81442028087758   -1.47343708572756    0.03621047733746
C         3.99690719398302   -1.96020317942528    0.86986733309348
C         4.06073447705592   -1.22372524132371    2.20993865687358
C         5.29943353441193   -0.31308503196948    2.23234723784782
C         5.21245968886649    0.93207342445362    1.32717986985820
C         3.82267432528469    1.59137561220862    1.44045684533092
C         2.64496745654890    0.61422356416319    1.26650837313641
C         2.79474624116160   -0.39251289796120    2.41060214289543
N         1.63541001288675   -1.27892517787181    2.38813219505119
N         6.15432744686435    1.93050484158427    1.83462442336481
C         7.44120028067135    2.13555321756979    1.46068048774412
N         8.22296966133196    1.28986985829744    0.77788935479869
S         9.76217607183982    1.93780699892824    0.79963225826731
N         9.36586396637450    3.17659655230642    1.84677475521538
N         8.07265862602240    3.19591449772444    2.11377311453306
H         0.47857657205716    0.24705524533850   -0.22664841276420
H         1.20755781224497   -0.33378786324931   -1.73347077088443
H         1.38755575261214    1.37224113650539   -1.25061024617760
H         3.51065023193609    0.35549487736242   -0.83025243477906
H         2.87713042483381   -1.96896325011437   -0.94199326357674
H         1.85197640170157   -1.84716166788717    0.41387260121564
H         4.98172091082606   -1.80277886942233    0.40977807171839
H         3.92416469211414   -3.05424324837470    0.95133781270909
H         4.19754174682158   -1.85288838231090    3.10441855874614
H         6.23772428897497   -0.81184592110222    1.95598908705941
H         5.38999373546411    0.04479885034658    3.26899126906418
H         5.39158320743020    0.66221469262687    0.27938279162360
H         3.69868137093004    2.31763345988065    0.62489830639391
H         3.72491792345241    2.19239529260592    2.35858785670465
H         1.66465545614797    1.09288413304395    1.40506638285296
H         2.89246459579255    0.19597359507513    3.33199909855988
H         0.85869469398708   -0.92712818947730    2.94993152644932
H         1.86139401108177   -2.15900931063694    2.85265094355356
H         5.82335378681181    2.37740487336248    2.68759586739734
