36
 energy: -51.089698829619 gnorm: 0.132405122523 xtb: 6.4.1 (79825abcba525fcdf90b791dcacef51065a7a4e7)
C         1.64121556476397    0.30005306924602   -0.92686484287990
C         2.90977131564709    0.14386319351283   -0.06591763546435
C         3.25345877832261   -1.35658672371157   -0.07879554727258
C         4.41733259479556   -1.77174698168394    0.81744099995906
C         4.16534989493999   -1.08006275109742    2.15920938618516
C         5.15339269462501    0.02035835010392    2.57990862994515
C         5.07928367014210    1.24212534774391    1.64230252728731
C         3.63854056373005    1.77710613542122    1.77295180702185
C         2.66771852262823    0.64854781446649    1.37806158209321
C         2.77488891633772   -0.49230602292693    2.39387135506502
N         1.75227475418872   -1.51290453810844    2.18667333680796
N         6.03159439814749    2.27129939719927    2.06109266248139
C         7.28500821696636    2.18624844041764    1.55154312629076
N         7.75959502198871    1.06858771635406    0.98749586862327
S         9.40293788839304    1.27835281445025    0.77565987119936
N         9.35658811360125    2.90509172777738    1.14948129462478
N         8.18675978636604    3.24697080874749    1.65806927643535
H         1.12315158738434    1.26420570423734   -0.87826213394026
H         0.89686599539188   -0.39045504413491   -0.51416254509791
H         1.86624928811926    0.06832183274970   -1.97135989156951
H         3.73373651245284    0.66037686085782   -0.57790510496380
H         3.45836635689302   -1.62999117570168   -1.12264619375596
H         2.38440640391006   -1.94840835581776    0.24228399367815
H         5.33268317881833   -1.37775591929082    0.35567598773656
H         4.44056322227627   -2.86758974066924    0.90370541040546
H         4.19373118835078   -1.88549360912717    2.91096226759303
H         6.17134023741727   -0.38235839134132    2.66433487691002
H         4.88830607956864    0.27522727676819    3.61706038698960
H         5.34709484070320    1.02193276248066    0.60183144023952
H         3.59826631031301    2.54104027471598    0.98381110657125
H         3.30743489224086    2.14574632076478    2.75693298333828
H         1.64736432835757    1.05867339666317    1.37847869131771
H         2.73048004337875   -0.16152595888223    3.43955292307430
H         0.89864752286563   -0.96224446120155    2.08294135063058
H         1.70345940027408   -2.09159127645878    3.02579980456028
H         5.80349690203951    3.26337399155897    2.03694700940420
