36
 energy: -51.094298498670 gnorm: 0.126817495949 xtb: 6.4.1 (79825abcba525fcdf90b791dcacef51065a7a4e7)
C         1.86432601988757    0.39350975617488   -1.12625412851013
C         2.99733480107302    0.06804257452029   -0.13367099389291
C         3.22192144995462   -1.45319184836355   -0.06265311061842
C         4.13209748513425   -1.93442925368917    1.06437412547794
C         3.93425465166536   -1.27379903165406    2.43064302681359
C         5.10549877530706   -0.32337065536734    2.72899878727313
C         5.16867634050331    0.91953942667071    1.81878174291252
C         3.83253813568701    1.66348097972400    1.61803305056746
C         2.73532843310174    0.63583785643963    1.28313290759049
C         2.67333526788906   -0.41186166486616    2.39820466863196
N         1.46051999660598   -1.21290871743343    2.26518279273274
N         6.12881533135879    1.96045542922764    2.18770872560573
C         7.39348130571290    1.99334745208035    1.70041139084459
N         7.70075505303071    1.53589856067703    0.48021845149094
S         9.24144064441632    2.05635760910330    0.09961110360258
N         9.44955255896212    2.82858008552488    1.56539830851262
N         8.33761048923789    2.84481834653873    2.27769214773654
H         1.03873576374909   -0.19317194061047   -0.70846454409296
H         2.11166390679473    0.02254126647668   -2.12744705228088
H         1.73304735473172    1.47791243491558   -1.17258114361577
H         3.94889434871588    0.48459737025580   -0.49263160807584
H         3.67264519527203   -1.68483857905117   -1.03710125419561
H         2.24981932000179   -1.96244987277353    0.00269717322593
H         5.19096521850613   -1.75081767180421    0.83763970166078
H         4.00128937689565   -3.02591055298316    1.04411615412169
H         3.85500892411837   -2.05592314134624    3.20307991504653
H         5.99108589524707   -0.96778766942996    2.65161699915129
H         5.01685322127339   -0.07129498766806    3.79647837746880
H         5.46209153634210    0.54137697292382    0.83202525381779
H         3.98169254101181    2.35448152793377    0.77646805951369
H         3.57014235725595    2.32062175418147    2.46246183035853
H         1.83036198541265    1.24970058512141    1.16679659653176
H         2.78115568216701    0.07175148854966    3.37765892119175
H         0.69741089844003   -0.62903312503950    2.61075491685616
H         1.48493853680960   -1.99141074766597    2.92452552104801
H         6.01721592496282    2.27732261385541    3.14893931330009
