36
 energy: -51.085596965624 gnorm: 0.118303680283 xtb: 6.4.1 (79825abcba525fcdf90b791dcacef51065a7a4e7)
C         0.91760906562956   -0.40959695649447   -0.24123012246311
C         2.45847970887318   -0.42064574444581   -0.26255466046126
C         2.99243535891989   -1.83185993399134    0.04240903594955
C         3.20636320166293   -2.23226141298066    1.49984304137638
C         4.02383918676137   -1.16635050776305    2.23321324735431
C         5.48827794757639   -1.03519400490294    1.78336856363946
C         5.81579501680950    0.30722370177206    1.09929305634836
C         4.67404341379642    0.71836135926897    0.14725129525377
C         3.21765968042956    0.59047534663492    0.63167806358958
C         3.30348378204203    0.17455107591507    2.10291694571484
N         2.04264864461327    0.20814051976948    2.83739545019083
N         6.27099248810461    1.25321439640248    2.11879146941439
C         7.42320444398321    1.93526791770732    1.90635040762286
N         7.83864704238320    2.20133301787246    0.66169613469146
S         9.00945260066837    3.38813074602033    0.76257806114870
N         9.05133020163373    3.41072930711368    2.43168135961644
N         8.09984521801430    2.63021617065938    2.91076060438244
H         0.46645463561334    0.58232047432726   -0.12764170571643
H         0.44338901403073   -0.98106121137563    0.56482501820610
H         0.58689436714761   -0.83093404027204   -1.19433679030585
H         2.67875144872542   -0.08894509795720   -1.28690386477817
H         3.97169131416758   -1.93967784547278   -0.44317761624135
H         2.27655466480299   -2.54951476624537   -0.38312987337590
H         3.69554357814123   -3.21295857037627    1.57235698125033
H         2.23921822495382   -2.30118766991139    2.01823708121179
H         4.02922794030285   -1.41757918557900    3.30629848648069
H         5.67457242745480   -1.79679065057672    1.01473943917332
H         6.18024224880945   -1.18104150068440    2.62647401469856
H         6.69751891429911    0.18728045425720    0.45822808125728
H         4.94807169976597    0.16650497936840   -0.76287149452025
H         4.86914834851332    1.74812258168735   -0.19226517116335
H         2.69581988718691    1.55693361360104    0.68615339954347
H         4.02118329228936    0.80754360017395    2.64056506305816
H         1.52059353870593   -0.60762193989246    2.51388906160952
H         1.44007193845405    1.00566389380744    2.63184179555800
H         5.87918218070424    1.47935679985955    3.03102377214165
