36
 energy: -51.081810872474 gnorm: 0.129868834845 xtb: 6.4.1 (79825abcba525fcdf90b791dcacef51065a7a4e7)
C         1.37740564082900    0.27015939769244   -0.90544210870307
C         2.64441587289926   -0.02390202083758   -0.07896027309432
C         2.84817233288701   -1.54919072091640   -0.11914491032585
C         3.97338559513198   -2.05973921482236    0.77720089801557
C         4.05353557993179   -1.33897994481325    2.12492011904062
C         5.21976557648856   -0.34030613357374    2.20678292835471
C         5.23370718792425    0.95551991336925    1.37134730079431
C         3.84261292169809    1.61398897927284    1.47278612833989
C         2.69698858154889    0.59314491439909    1.34049794594821
C         2.80983418334223   -0.49835474767870    2.40857901108763
N         1.57165325859566   -1.27006868352948    2.44929597865261
N         6.14857612998933    2.01497871440113    1.79801131180107
C         7.48817315740026    2.09176259606122    1.60434982269648
N         8.27759798342784    1.25577461285090    0.91843432781949
S         9.76485755426368    2.01115049163109    0.83526018606058
N         9.33310902893464    3.37100532471839    1.70276136867827
N         8.06036251653841    3.28680979157929    2.04491455831932
H         0.50393960420992    0.61336790975213   -0.34010338876420
H         0.82012536778305   -0.53942270460197   -1.39041271865563
H         1.42402195514168    1.04155163752287   -1.67880517587106
H         3.49159544692713    0.45827322254685   -0.58653304176838
H         2.95081288937700   -1.79152081893914   -1.18549495138855
H         1.94345941069809   -2.10059775035504    0.17418400135270
H         4.99178970985765   -1.92384604242628    0.38898861951904
H         3.94658002053791   -3.14726424444059    0.93664818591479
H         4.17897784021667   -2.04088628794580    2.96530611016474
H         6.20741730284469   -0.81346721637880    2.12811571414633
H         5.22507666751736   -0.04493309535403    3.26680156073023
H         5.57184417274033    0.73559690081509    0.35150170284219
H         3.73702672074549    2.42035959737545    0.73347664838751
H         3.80536123945667    2.05280992311686    2.48263468093632
H         1.78100658211366    1.19559076642750    1.42629988764580
H         3.05326794309636    0.03473062834104    3.33669412964552
H         0.86396618456925   -0.56757273087950    2.66917040350719
H         1.57856703217805   -2.01787346197873    3.14365522142117
H         5.87940872749444    2.49870742024725    2.65263344791843
