36
 energy: -51.083437839832 gnorm: 0.139829564148 xtb: 6.4.1 (79825abcba525fcdf90b791dcacef51065a7a4e7)
C         2.03186371022282   -0.29765977538741   -1.07435785577465
C         3.34069163539772   -0.26857119825528   -0.26134963491327
C         3.76212903440835   -1.67019179155598    0.21560642059145
C         3.31384032674051   -2.09178680343106    1.61256566317816
C         3.50674491399618   -1.02821179141206    2.69601423768551
C         4.95854909910349   -0.65598796456531    3.03931745475724
C         5.51457255026441    0.23856183928621    1.91329322584745
C         4.61558989158400    1.32752299152325    1.29280295084306
C         3.24293514406596    0.74800192027296    0.90286463082269
C         2.70543624582576    0.18244472338246    2.22049222014412
N         1.28136927368421   -0.07123299202440    2.41535871844302
N         6.78241285948313    0.82632454546047    2.34756977963952
C         7.38885324931562    1.82863820787756    1.66528096585151
N         7.22743090886566    2.01188946267202    0.34888084016121
S         8.43835626587751    3.04768600831888   -0.15135607581360
N         9.19072976654276    3.15171603612732    1.33568196114956
N         8.57931266139577    2.34345393374957    2.18239493723570
H         1.59627936975485    0.70363444439695   -1.16390661355353
H         1.32683396869741   -0.88587368925507   -0.47592792852150
H         2.14724370827777   -0.82385956444423   -2.02573090650668
H         4.15831559359521    0.03200735534182   -0.93140917609460
H         4.85316429356904   -1.74004864598106    0.32107379393304
H         3.39063524442584   -2.43294713381791   -0.48353133224597
H         3.93637974171669   -2.90574172287392    2.00784361417843
H         2.26615830582253   -2.40968099390052    1.71335376943827
H         3.06253287505908   -1.26599500685781    3.67621400052447
H         5.52690265296395   -1.58584148149232    3.17300538054460
H         5.07603426347709   -0.04919641654658    3.94976466193060
H         5.88674137473235   -0.44401767193480    1.13975377250057
H         5.17031803954223    1.63730521891506    0.39599076759055
H         4.61164593893653    2.12767417789463    2.05009288209033
H         2.60149634042370    1.62386258184390    0.72750724722428
H         2.87039279170675    0.98896390834632    2.94654574116785
H         0.94436422690704   -0.87761818095212    1.88730870663717
H         0.85007175831165    0.77619747400705    2.04490147267632
H         6.88242090520853    0.88138031508841    3.35939523739421
