36
 energy: -51.097449173664 gnorm: 0.118680641987 xtb: 6.4.1 (79825abcba525fcdf90b791dcacef51065a7a4e7)
C         1.64276159471351    0.27537646356896   -0.95785166063009
C         2.91999104932201    0.08443804307433   -0.11696726756738
C         3.39195817001597   -1.38070496069128   -0.10147685509756
C         4.37844366268083   -1.73147274361169    1.00938256054281
C         4.07260320277838   -1.07862024273241    2.35938629370684
C         5.08186701293901   -0.00774275775681    2.80520137604174
C         5.05931371123933    1.16141040189166    1.80027140951470
C         3.63987624980817    1.73436976092574    1.61072122805144
C         2.63056683828341    0.61040199686648    1.31060681317449
C         2.66747478579949   -0.47959040069509    2.38552864793409
N         1.69591468170367   -1.52816898604442    2.09083210447062
N         6.07591615386560    2.18024774158078    2.06478998869473
C         7.30873182618019    2.17888667415263    1.50080040170228
N         7.69776961971961    1.49154148315788    0.41971131243204
S         9.36512506624158    1.56998784892308    0.36293415302149
N         9.47847493347981    2.76757587617336    1.52099502170422
N         8.31763475273249    2.90643548426463    2.13516880822219
H         0.88286472151821   -0.39566786271223   -0.54240119973511
H         1.91788285795482    0.07337150486580   -1.99933292400365
H         1.24450289513174    1.26186729222735   -0.70578953187550
H         3.77017309068781    0.61809519030297   -0.56444550839418
H         3.74341628866286   -1.62003330450732   -1.11417643571903
H         2.47913098794262   -1.95533421679732    0.11099603585179
H         5.37951624071383   -1.47622516923992    0.63652202572362
H         4.30438237691737   -2.82247767602491    1.12373185925048
H         4.12196431317712   -1.84602293207763    3.14888828276985
H         6.11025081712217   -0.39077624122632    2.84038518584924
H         4.81655797219071    0.32732523874112    3.81922969117060
H         5.24650929382144    0.63451762091575    0.85680465533005
H         3.64108922971822    2.44892875668191    0.77563774868090
H         3.38926148143161    2.32908215034078    2.50361256836233
H         1.66437808745049    1.13163431557812    1.37481011388746
H         2.49222564131927    0.00626315000874    3.35406964363288
H         0.77725952931284   -1.08717999414162    2.02550429958655
H         1.71559235074781   -2.25936610818028    2.80242052221394
H         6.08299231853001    2.60411289837986    2.99059328233475
