36
 energy: -51.089361885915 gnorm: 0.131451605189 xtb: 6.4.1 (79825abcba525fcdf90b791dcacef51065a7a4e7)
C         2.17508954511332    0.01357032226081   -1.17651161037622
C         3.26318498219216   -0.12195816560065   -0.09367302603526
C         3.41028421204263   -1.63946632935118    0.11885374550665
C         3.76905639555709   -2.10518567378968    1.52760789056558
C         3.56229346812715   -1.10819187168734    2.67020021723279
C         4.93677250402089   -0.48363327513605    2.96153674683406
C         5.50732152946285    0.50970466566964    1.92951664479790
C         4.39529467917514    1.49701148118406    1.52008302395450
C         3.08573890566467    0.77125600189979    1.15894559909847
C         2.52633052837593   -0.03723122986681    2.33296140347781
N         1.16558140691023   -0.55796184797221    2.24639637561665
N         6.63556521617746    1.24586171732237    2.50102263504878
C         7.46645834876662    1.90848257373344    1.65931556252515
N         7.54829525740438    1.57253871519676    0.36587368689425
S         8.78923239979430    2.54485796256992   -0.18559885216064
N         9.13526036148919    3.28420788830255    1.27103994613655
N         8.27126070057635    2.91398505022620    2.19866109503681
H         2.19208683219983    1.05451731734197   -1.51780805495841
H         1.15208207328407   -0.19839025284707   -0.84528760461692
H         2.45896864141611   -0.70041109956558   -1.95429862377809
H         4.17191946643134    0.24861532718025   -0.58835788791334
H         4.24436009592022   -1.99965303965981   -0.49835305721942
H         2.53454700355395   -2.23498811996836   -0.17616333342957
H         4.80166901111335   -2.47858430355031    1.55224991505490
H         3.14701464114738   -2.96926845031921    1.80197550185179
H         3.29124965314675   -1.68776014232653    3.56758119564913
H         5.63200887216147   -1.31310531656828    3.14632933288763
H         4.84268382921261    0.02521559076361    3.93268709999570
H         5.81258358256567    0.04324097213104    0.98505151534687
H         4.69162646390485    2.12304653333643    0.66672026358434
H         4.12669823850526    2.16917758069948    2.35062152338281
H         2.22687956701170    1.42020089714143    0.93409675199494
H         2.49494894915668    0.67643595855026    3.16634720499336
H         1.20692151454631   -1.46922585716625    1.78753344472176
H         0.53079527090072    0.07855582953227    1.76339916140743
H         6.70613367655758    1.22815554649705    3.51666531205669
