36
 energy: -51.092534124959 gnorm: 0.122743093583 xtb: 6.4.1 (79825abcba525fcdf90b791dcacef51065a7a4e7)
C         2.22847838771730    0.19516054907333   -1.27337459244122
C         3.27529297093607   -0.14907530475182   -0.19609098649520
C         3.11782440048901   -1.64207743612452    0.14418119270047
C         3.81103906475630   -2.08393995730897    1.43042036053389
C         3.57149929641393   -1.15789629304571    2.62512895811784
C         4.93764366199752   -0.57395818336461    3.02112002420450
C         5.58172955883021    0.25217793646528    1.88976488112957
C         4.55092053222633    1.29182394970208    1.40439565266089
C         3.15655651647129    0.72614126659085    1.07602131774094
C         2.57399625691346   -0.06251184701140    2.25226630732077
N         1.25143280620836   -0.62512938527878    1.99814135182589
N         6.72504498343456    0.94773742081456    2.48180117548367
C         7.55216679817281    1.71028671379376    1.72529032901021
N         7.26677387872458    2.00339205789367    0.45046188059690
S         8.45039198877808    3.08367344818863   -0.02016743430901
N         9.27707287185271    3.09775171996438    1.43054644833938
N         8.67564889172278    2.30715326944288    2.30076747722420
H         1.24650942365514   -0.02207821900048   -0.83876317063814
H         2.38295235256643   -0.45950006357118   -2.13867118735930
H         2.21062623486060    1.22848365910650   -1.63007347982966
H         4.23630009139062    0.11613484064150   -0.65865458607785
H         3.53823859909825   -2.21850977760708   -0.69088703439239
H         2.03241181864644   -1.80397065548050    0.20950398101399
H         4.89535939078367   -2.14656486539005    1.26717164808010
H         3.46031922586464   -3.10659813881845    1.63046638898225
H         3.33292447895007   -1.82568780185556    3.46880740204916
H         5.69099537557971   -1.36709837642222    3.11554260827769
H         4.89040102975168    0.08724107132766    3.89946878273934
H         5.96580079159088   -0.33218572137721    1.04490034586655
H         4.80467826048390    1.94205452205590    0.55541530116223
H         4.41488032770092    2.01592085654277    2.22349409019497
H         2.65043716282079    1.69646948436921    0.96816863345934
H         2.62679390889194    0.64327471139912    3.09126290932767
H         0.55908834309504    0.04545174948581    1.66102657753318
H         0.95476951433904   -1.11543419455764    2.84252668573267
H         6.76846535145251    0.96393829707066    3.49899126093412
