36
 energy: -51.072551020762 gnorm: 0.137200909014 xtb: 6.4.1 (79825abcba525fcdf90b791dcacef51065a7a4e7)
C         0.93826313915355   -0.69547209280653   -0.11062752642344
C         2.46930389644838   -0.53813072433002   -0.18819671927204
C         3.33268891868435   -1.80706861140380   -0.06987581523983
C         3.54759527209684   -2.16462574032491    1.39851392838254
C         4.08129134308734   -0.95596353051854    2.17089270174084
C         5.44200270879426   -0.48916191694886    1.62802636599192
C         5.51909565756270    0.87921274012792    0.92168409321065
C         4.16336226749598    1.25667429841596    0.29039644585276
C         2.85224425879945    0.61118000886893    0.77659012937358
C         3.00837267030817    0.13037638306038    2.22205001568591
N         1.78786656533654   -0.21791691240206    2.94270853302112
N         5.99614567454058    1.94961798678954    1.79811777137879
C         7.29138153259636    2.34294068554453    1.72340559915649
N         8.16570033161569    1.45929902558237    1.22612147265324
S         9.68634901213974    2.13784917688859    1.35515227789810
N         9.15985999655853    3.61120013511954    1.93843310262115
N         7.84255174750595    3.58886494535017    2.02921563186435
H         0.44125909348553    0.25266446275038   -0.34379457575390
H         0.76130328348004   -1.15544283258996    0.86829691242532
H         0.69032453743086   -1.50481079152818   -0.80258617971678
H         2.71428762282505   -0.18161644561205   -1.19850199866439
H         4.31952288616291   -1.59881124403032   -0.50478831898480
H         2.88033625782865   -2.66116100975048   -0.59380348615305
H         4.24309717128709   -3.00965507328305    1.49084554049768
H         2.58745694614270   -2.58116331582779    1.73538693520518
H         4.04541798548142   -1.36527586271823    3.19355260747930
H         5.73113140837808   -1.18138476323759    0.82630452354120
H         6.22824206717778   -0.59505951729943    2.39060502501319
H         6.26617913694657    0.78297038179149    0.12456969266051
H         4.28650196326016    0.94834303933848   -0.75732913075605
H         4.15224939770353    2.35305326537504    0.39798445696319
H         2.01068419551627    1.29349175508024    0.58803455869258
H         3.45923558410071    1.02117729257193    2.67815739337916
H         1.52258456736037   -1.18534660544570    2.75199529159351
H         0.96241707714478    0.33741079236946    2.71546684136041
H         5.44515733539943    2.44719151661951    2.49500793227059
