36
 energy: -51.096229714188 gnorm: 0.121566261682 xtb: 6.4.1 (79825abcba525fcdf90b791dcacef51065a7a4e7)
C         1.52208528533467    0.38145506528889   -0.96833355999304
C         2.74370392151399    0.07695354010261   -0.07963458539218
C         3.21755213223778   -1.38662975230886   -0.02460018610766
C         4.46469089946367   -1.66236991870142    0.81134992562835
C         4.29353620789476   -1.12647514240798    2.23465163398125
C         5.27571481580188    0.00292535447703    2.58667841678371
C         5.03440663867547    1.21150345594383    1.66016809163730
C         3.59758157456303    1.77196744192804    1.68086372500864
C         2.65238345330923    0.59450107622682    1.37713491061338
C         2.92730214340235   -0.47410782127999    2.43892460533194
N         1.89959936945221   -1.50226885723158    2.30852499986909
N         5.95624607719129    2.29348361383700    2.00803470003677
C         7.23832815492689    2.13932280366939    1.59521439645557
N         7.59739000363291    1.35747042224108    0.56938356917398
S         9.25227026673633    1.48847894652453    0.38591765245157
N         9.43733338270580    2.66594583655117    1.55531647894979
N         8.29039635685051    2.84216165073485    2.18581215602790
H         1.34787235165847    1.46277032872756   -0.99571948767030
H         0.58738373709388   -0.09419715446107   -0.65010578078370
H         1.81615277519456    0.09239505568775   -1.98089372586298
H         3.51518362616839    0.64684605039097   -0.61617706798970
H         3.36852980245100   -1.82348231019092   -1.02095700183163
H         2.32510095864841   -1.88971931613619    0.37418393814407
H         5.28337967261055   -1.10232934196414    0.33972945659417
H         4.76846228582077   -2.71904987722478    0.81308728583418
H         4.36511525571917   -1.93852652174847    2.97634281703493
H         6.30514119414649   -0.37881434648386    2.57762614210642
H         5.03273912963561    0.26280598464323    3.62799381717871
H         5.34483046206969    0.99345468763030    0.63114938079248
H         3.55677152254489    2.53113928640978    0.88716786736003
H         3.45131167993694    2.32094005918951    2.62478095155904
H         1.59369352799450    0.84855145598145    1.53192496645851
H         2.98338455105604   -0.03303794422453    3.44249310942343
H         0.92113199187263   -1.21631960298330    2.24935642361562
H         1.99539034978553   -2.27624885634078    2.96668422954870
H         5.89823368634163    2.62421698635382    2.96932211575521
