36
 energy: -51.091114115886 gnorm: 0.129747791945 xtb: 6.4.1 (79825abcba525fcdf90b791dcacef51065a7a4e7)
C         1.66493449066030   -0.67240026711969   -0.85388882175997
C         3.03950952434553   -0.37642280466428   -0.22317506542428
C         3.67189178572114   -1.70026869410353    0.24283091410385
C         3.27524295801785   -2.15108239841712    1.64626846064683
C         3.58396250269756   -1.06000905382812    2.67413808467501
C         5.06953093388017   -0.66569355661832    2.63236796753754
C         5.57742878429299    0.32391882861199    1.56465122165820
C         4.49632052358716    1.25674527879965    0.98150965838646
C         3.06700199859006    0.68877837963360    0.90064104845640
C         2.76244633834539    0.17575254212993    2.31094341416854
N         1.32965905057422    0.11181660861864    2.58172898091684
N         6.51072558183272    1.19400943007498    2.28115633272288
C         7.48403793245698    1.84841888930253    1.60120637943898
N         7.67796978424430    1.89679086228372    0.27734912212354
S         8.96120914891165    2.94729190834261    0.07936943510785
N         9.17205747559953    3.32923922392451    1.69114779569012
N         8.29868477976268    2.64545572651546    2.40787760799964
H         1.17619284303841    0.26713738038022   -1.13450139794295
H         1.01753902223034   -1.04863748109863   -0.05357289612548
H         1.72379134496029   -1.37642536728331   -1.68827120845511
H         3.71023297999470    0.01591760833723   -1.00037209942324
H         4.76752966826320   -1.62326536381385    0.23976644019462
H         3.39197808882080   -2.38711442625369   -0.56864194911825
H         3.82934075533769   -3.06443024700437    1.90140355086938
H         2.20404317779296   -2.39846682413084    1.65985310600850
H         3.40075425379447   -1.49436045729322    3.67034606157740
H         5.70791081944958   -1.53870923938298    2.44305204481958
H         5.24512802033504   -0.10429846595395    3.56237553437399
H         6.18309582217067   -0.18683879964186    0.80630977039905
H         4.74596822873352    1.63660891753885   -0.01916014469294
H         4.45579111912559    2.18365737274251    1.57559453761707
H         2.29490760822933    1.42457667155922    0.63269151413919
H         3.06672706547770    1.02519666287794    2.93599978839064
H         0.94038092121209   -0.73528539052660    2.16513922329166
H         0.87440810682631    0.91941253875483    2.15519657323240
H         6.55213969885836    1.37251295653738    3.28277743978724
