36
 energy: -51.090767100907 gnorm: 0.123684423251 xtb: 6.4.1 (79825abcba525fcdf90b791dcacef51065a7a4e7)
C         1.96260335230501    0.44024653791394   -1.15080578185786
C         3.10002865058417    0.00424729701690   -0.20686330086539
C         3.01343867727323   -1.52286516284192   -0.03346617157063
C         3.84175393280586   -2.08493192380666    1.11899858778962
C         3.77755585632279   -1.31700601438473    2.44128190342717
C         5.12327739062771   -0.68112295553337    2.82706591564583
C         5.53073262676947    0.44757928534594    1.85891126053889
C         4.33204870856762    1.37852559149681    1.58412006080267
C         3.01655340419522    0.68642116074040    1.18095613360331
C         2.66761378637195   -0.27415170943865    2.32132596098652
N         1.34485504530060   -0.88444675931910    2.23109676299823
N         6.51624567426255    1.30386456063213    2.51998592537900
C         7.42172041604741    1.95919153828073    1.75279450961794
N         7.91496805914850    1.43090314358339    0.62577827274516
S         9.10009723094313    2.46172542249514    0.05804070421644
N         8.99601458535008    3.49367777018661    1.36663208713018
N         7.94655089811742    3.20186039556581    2.11329797692032
H         1.00661037731365    0.14412474610066   -0.70501195912386
H         2.16177945031370   -0.19509804836868   -2.02134990144895
H         1.99704127014854    1.52681703890298   -1.26694373507138
H         3.99902905850003    0.20023934344953   -0.80788040464936
H         3.24439487642487   -1.97091754916044   -1.00930917517038
H         1.96622618384264   -1.78521815657943    0.17417256381210
H         4.91039975150865   -2.09501892063862    0.86558795566891
H         3.48736822859667   -3.10546136299665    1.32340750652587
H         3.41533200689949   -1.98558870922466    3.23905869668941
H         5.89835566382244   -1.44632979223449    2.96576678560250
H         5.04680056645469   -0.27234707071367    3.84587228420511
H         6.01431756326167    0.11174380828638    0.93362869828770
H         4.48228516324036    2.02627128211545    0.70901152318725
H         4.12155191081001    1.94490777539301    2.50534090117479
H         2.26509838111126    1.47653067562048    1.03823912873663
H         2.80626975012219    0.30289489353557    3.24470523972652
H         0.62964684316308   -0.15723278280573    2.27908990156050
H         1.13367355756998   -1.71141263102219    2.79049314956873
H         6.25008429499196    1.87296057979837    3.32130442351497
