36
 energy: -51.090964550952 gnorm: 0.122510270483 xtb: 6.4.1 (79825abcba525fcdf90b791dcacef51065a7a4e7)
C         1.04867997584867   -0.69034449001793   -0.27937237513919
C         2.46034168809169   -0.07797622053628   -0.19525707460852
C         3.55451363525538   -1.14526317677692   -0.37780345194259
C         3.97073732529699   -1.82829368251153    0.92236093472667
C         4.06514652952835   -0.97769531395985    2.19115332853711
C         5.31160762909432   -0.08934495870620    2.04516891800860
C         5.11855050942031    1.12322416674090    1.11258269614613
C         3.73699229808408    1.80160771562691    1.21311664218658
C         2.62058515983954    0.74601458145529    1.10617802109880
C         2.81336322681849   -0.11758694731808    2.35595061008648
N         1.68962319685676   -0.93037792464954    2.81078163608182
N         6.07676430466346    2.14970247290019    1.52446710493877
C         7.42508656489890    2.01405058782452    1.56378958857723
N         8.13303682224477    1.51462888222143    0.54303896184864
S         9.75244595249541    1.81051604577421    0.82484833297436
N         9.45033351927739    2.58100648645474    2.27510445152778
N         8.16640982517088    2.61642216953339    2.58223152074318
H         0.33535457002604    0.11192663303770   -0.06057856726067
H         0.88749356762280   -1.47898301557613    0.46443481700973
H         0.82054672018126   -0.92982352225154   -1.32144457174840
H         2.60810060697552    0.59493806743838   -1.05152214191559
H         4.37398587190854   -0.63858180362722   -0.90515582730525
H         3.30251126657659   -1.87075489657051   -1.16441232614180
H         4.97272977769390   -2.23397726810277    0.72805562116828
H         3.24022478971462   -2.62552480144013    1.12142515300480
H         4.17407639032666   -1.75805120890837    2.96176070885193
H         6.24735039264099   -0.56114446355822    1.71757695540052
H         5.56558632152628    0.30921184385380    3.03892953872123
H         5.30446865010161    0.94373419682644    0.04674711230366
H         3.65119982760356    2.57563707516228    0.43756610546120
H         3.68972135076411    2.25836025296278    2.21455965363753
H         1.63489473468984    1.18756604331925    1.31299331582779
H         2.91435989106047    0.57242027588708    3.20361049285045
H         1.40749177175042   -1.71190944456459    2.21725267267126
H         0.88492438902410   -0.33300371772399    3.00313130633601
H         5.78881160995928    2.67034840591110    2.35080514450395
