36
 energy: -51.097776934135 gnorm: 0.128886772260 xtb: 6.4.1 (79825abcba525fcdf90b791dcacef51065a7a4e7)
C         1.88745914784194    0.37464226281985   -1.02694838349798
C         3.14032463524455    0.15794327528164   -0.15618510764322
C         3.45806046346768   -1.34825548510023   -0.16297393814610
C         4.32698093000362   -1.83001714457494    0.99594070806054
C         3.95156373938108   -1.22085844922377    2.34880891495150
C         5.02691937769513   -0.29737796174197    2.94457488879217
C         5.25713115477609    0.87278344006568    1.96731503960229
C         3.94313757102775    1.65235298853612    1.75587579233948
C         2.83724985589067    0.70084990310666    1.26218373348664
C         2.65970569456027   -0.40656720588879    2.30478043293424
N         1.49379596332020   -1.23558653561418    2.01551668875061
N         6.26870150610615    1.76271671099496    2.53847556967206
C         7.31920660894164    1.98998183809212    1.71221276937673
N         7.53509941909717    1.35403370293441    0.55397802652187
S         9.02973666262384    1.89070601947580    0.03677979959361
N         9.23721363619955    2.96960842962549    1.29419506402131
N         8.25706400791267    2.91386497766417    2.17750743089880
H         1.04332626056624    0.16215849687879   -0.36164158360647
H         1.82811246815338   -0.44821900992652   -1.74844558949080
H         1.78961174340889    1.37772938208792   -1.45068363328590
H         3.98075244930357    0.73514117917365   -0.56650188244658
H         4.02222599338353   -1.50918788930818   -1.09151004212111
H         2.57108717676209   -1.99575137533199   -0.21420282092588
H         5.39399452017448   -1.69193627889926    0.77517330896035
H         4.15784228207818   -2.90333497179154    1.16396908917818
H         3.88442415805862   -2.01912281450181    3.10572570801135
H         5.95821696132093   -0.81613080878890    3.20745521641807
H         4.74321855973046    0.18874484086630    3.89014949153502
H         5.54073788615166    0.45142557539056    0.99530039850883
H         4.01520190751322    2.44395498186174    0.99684124991224
H         3.58554028215091    2.11629016156632    2.68895241812395
H         1.89666994090080    1.25856496526422    1.14561108858786
H         2.58196602180857    0.09744616427884    3.27677046254409
H         0.63999203319964   -0.67704009226427    2.05688102942529
H         1.46681140133792   -1.91831743141843    2.77350406717438
H         5.98280141837878    2.51008865834263    3.16817374957455
