36
 energy: -51.078887293931 gnorm: 0.126286356162 xtb: 6.4.1 (79825abcba525fcdf90b791dcacef51065a7a4e7)
C         1.06005303369501    0.07257509548186   -0.02819348121422
C         2.56069134764678   -0.20044296608709   -0.24820453849815
C         2.88562984221935   -1.70204944727694   -0.15213237569063
C         3.06166287508026   -2.09439234381049    1.31254496097016
C         4.02590962609079   -1.31024787719230    2.20563536350412
C         5.52027224290863   -1.37524438212459    1.84954705395848
C         6.06241838926477   -0.14375623172287    1.09666827477966
C         5.03708870738141    0.32166226799961    0.04258144981458
C         3.62582052828864    0.49624170294100    0.63412331839065
C         3.62571291683008    0.16209831826190    2.12852979135587
N         2.36830508801940    0.55802429372619    2.75499628919992
N         6.33258248086540    0.91786577872158    2.06695183467406
C         7.12130646963663    1.99181147594295    1.81700045695869
N         7.53097057700295    2.36747714324606    0.59897005803466
S         8.63935029316133    3.57992986355254    0.90047374596252
N         8.57985739624230    3.45518399768216    2.56452582268767
N         7.70032760573126    2.55183545738355    2.95750180094993
H         0.74490087296475    1.10774582857878   -0.19978452496764
H         0.82624041036359   -0.13598336251230    1.02205218170712
H         0.49008745397737   -0.58532174905517   -0.68972234254831
H         2.76679376781770   -0.00128621061913   -1.30919209218658
H         3.75877669090514   -1.98375672806646   -0.75596752165107
H         2.01605583963762   -2.26179157145813   -0.52512939275474
H         3.14165825536806   -3.18706096953154    1.23509430562128
H         2.08487663312602   -1.98761452617583    1.80583972333340
H         3.84937102963041   -1.69687157188252    3.22249966943388
H         5.70163390953006   -2.32003138587638    1.32038617090037
H         6.14884437299365   -1.44995011469992    2.74967426263339
H         7.01978828741546   -0.37731424013835    0.61533552544679
H         5.09469476014860   -0.40751567171714   -0.77774867075194
H         5.30032154655459    1.28623783231464   -0.42007173577154
H         3.42936651135070    1.57704497649755    0.58317252641828
H         4.44799085442092    0.75737933309088    2.54606671639663
H         1.78920225560061   -0.26347436683938    2.93512445328112
H         1.79798921305739    1.06329693364379    2.07614882831312
H         6.44466282221405    0.67755038343684    3.05006423428397
