36
 energy: -51.085889247869 gnorm: 0.134951282267 xtb: 6.4.1 (79825abcba525fcdf90b791dcacef51065a7a4e7)
C         2.04490731835285    0.42600292440400   -1.18786204474011
C         3.10341180503179   -0.03066123220349   -0.16517675848511
C         2.97050589072879   -1.53916860005136    0.11118976549778
C         3.97513611132064   -2.13894288042350    1.09159234966664
C         3.82967010589226   -1.35671321637594    2.39896422968185
C         5.07114562977576   -0.50688842768819    2.71626449412849
C         5.30561399578603    0.65104699898566    1.72554649319134
C         4.03985115737009    1.53231521768517    1.71053974743936
C         2.89914727403487    0.61778203143857    1.22628632264226
C         2.65638944186792   -0.37894148808565    2.36317391427167
N         1.36457240852530   -1.05613325376949    2.41713845378800
N         6.33096565424489    1.51760126839913    2.30797061027596
C         7.39150521273838    1.95733322450190    1.58699053572397
N         8.09115075691905    1.30300314985575    0.65163193406102
S         9.32199518425807    2.29599996771361    0.11457422678057
N         9.00101003748944    3.49890388350714    1.22730103775272
N         7.96784373184969    3.16691879328529    1.97989298726821
H         2.64097878615387    0.97187598426954   -1.92749995214046
H         1.37115488738540    1.12648272250549   -0.68133796562596
H         1.49527094384201   -0.34068661604922   -1.74048891466333
H         4.12334381880687    0.21810357902360   -0.49027823427526
H         2.97731263242040   -2.15464733102188   -0.79848099841405
H         1.95519192031678   -1.67050336052188    0.51179641755383
H         4.98593369683912   -1.91664054842195    0.72390699732505
H         3.86795294371344   -3.22516680394152    1.22381164844080
H         3.62708473917694   -2.01711577357409    3.25773335986331
H         5.99149755264949   -1.10134744254277    2.64487388774119
H         4.98529920782851   -0.12923468525724    3.74627464871583
H         5.65088679373577    0.35652016329307    0.72713358075110
H         4.12545826067653    2.38362471107848    1.02068177811292
H         3.78262191882574    1.92541500601346    2.70705929685360
H         2.05732769992453    1.32334418388662    1.17292212799040
H         2.74765808567872    0.11279160246962    3.34026458853033
H         0.59943527572576   -0.40911543829156    2.61360578059675
H         1.41261108835705   -1.65105649738209    3.24487822842288
H         6.03269665550525    2.22076009206429    2.98134032374100
