36
 energy: -51.092539915769 gnorm: 0.130339921197 xtb: 6.4.1 (79825abcba525fcdf90b791dcacef51065a7a4e7)
C         1.19193443526545   -0.31662040656779   -0.63051278634883
C         2.59121957246976    0.02614774780074   -0.08336549080385
C         3.54510933468910   -1.17418997295672   -0.22091746596712
C         4.22397380940835   -1.72756670835550    1.02932949254451
C         4.22896390271761   -0.93406308844354    2.33798983843271
C         5.35154998644089    0.11184229219849    2.43811717026606
C         5.07908062506306    1.21887931878998    1.40007023877968
C         3.64176331441814    1.77302524496661    1.47788804247392
C         2.56979650089165    0.67831532756239    1.32112396227979
C         2.84262929448033   -0.30454543048740    2.46324895294803
N         1.78034164295138   -1.28225844182125    2.67752518566988
N         6.03381901651994    2.32759872942506    1.42645197330019
C         7.36094795138796    2.05584865903720    1.37352486587699
N         7.92717349760915    1.10406223739224    0.62116945512953
S         9.55931341548363    1.43471684145348    0.74859978405661
N         9.41733433687750    2.77013729331000    1.74090236313840
N         8.14664458033650    3.03587416563683    1.98333341758151
H         0.53768432234467    0.55923705011965   -0.70243859332745
H         0.63392161244387   -1.07552414438964   -0.07027379711172
H         1.22489387096895   -0.67577507177601   -1.66261309752641
H         2.98349132500127    0.84112589009045   -0.70768088032747
H         4.24361853215590   -0.83089528283597   -0.99589807366241
H         2.92994063480790   -1.99588558268686   -0.61459341483359
H         5.25588751250059   -1.96935259232335    0.74120402161804
H         3.68677580014159   -2.66161291903114    1.24802690206548
H         4.37561774670907   -1.56783669797689    3.22764169714830
H         6.33084536631646   -0.37093824278796    2.32223235949437
H         5.28229957664428    0.53251172639264    3.45258967691368
H         5.31502170929362    0.78620046070756    0.42032103742904
H         3.51547026156538    2.67479099863758    0.86239717477092
H         3.61843300491543    2.04136582389492    2.54615512596652
H         1.59119588678661    1.16867052963545    1.42704126436893
H         2.77317075637248    0.30568111607286    3.37299432802008
H         1.64448908321662   -1.98126592541683    1.94567895157994
H         0.89343088641293   -0.79756204528186    2.81842665238479
H         5.74873927212461    3.07999883796412    2.05050893633557
