36
 energy: -51.086113579913 gnorm: 0.132959988419 xtb: 6.4.1 (79825abcba525fcdf90b791dcacef51065a7a4e7)
C         2.46873562042512    0.26998413665007   -1.33053925070144
C         3.33151980935425   -0.26621457332443   -0.17168054914964
C         3.01023501711786   -1.73495214377749    0.15880840277783
C         3.79019276332591   -2.24761023935522    1.36671894622423
C         3.63953947323608   -1.29426996182928    2.55445239129015
C         4.94941295811428   -0.55850303838038    2.88159394851330
C         5.53605883978804    0.35750779548948    1.78885299272529
C         4.42783475006216    1.34633166681251    1.37282274847851
C         3.09955592446530    0.62718029868618    1.07186701513315
C         2.64777245480339   -0.15917234867907    2.30574049393987
N         1.23638732757551   -0.51999501465887    2.21578969889036
N         6.54617365315549    1.15865979173682    2.48117065235608
C         7.38132592036282    1.86522120368341    1.68041332391281
N         7.19061397375429    2.24527397607956    0.41087155605258
S         8.59277293346324    3.04758509231008   -0.01303738769573
N         9.25632417107913    3.07199362537759    1.51904427811158
N         8.51455932283089    2.34835161480609    2.33768248399379
H         1.43531873929601    0.06375515944065   -1.03076936157362
H         2.61909588113944   -0.32046143166804   -2.24155338460065
H         2.60636572132511    1.32817102256298   -1.56846345340769
H         4.36487326866214   -0.19529301595680   -0.53908629015916
H         3.14251083560974   -2.41992350386816   -0.68953035239390
H         1.92828783153496   -1.90447055332996    0.25498927508980
H         4.83085516407894   -2.53159944924318    1.16009248868491
H         3.40771687553523   -3.25979925456632    1.56175274469895
H         3.33839347521343   -1.95512105133169    3.38345402424015
H         5.74808141049802   -1.24431538344845    3.19354896831843
H         4.81519694406692    0.11028337373181    3.74508898554870
H         6.06124142721297   -0.20003822933401    1.00392408507093
H         4.90909598790557    1.87011395961581    0.53496823639467
H         4.28377771413915    2.08895760651425    2.17375958931325
H         2.29930781023504    1.37407301123563    0.96660487013758
H         2.77696717306898    0.50232415053651    3.17209417123995
H         0.68755816996808    0.34092468925333    2.19935440072366
H         0.99219517886677   -0.85160871581625    3.14949043560435
H         7.08131109807836    0.72956597558814    3.23371959993971
