36
 energy: -51.089862622095 gnorm: 0.123540244955 xtb: 6.4.1 (79825abcba525fcdf90b791dcacef51065a7a4e7)
C         2.20555367496711    0.33675981203367   -1.22610034524372
C         3.29388939106346   -0.22190828647890   -0.28893741349374
C         2.97644354119211   -1.68569766122179    0.06628875067332
C         3.73586382492164   -2.22568663311357    1.27537640392884
C         3.66364939772176   -1.32193149944815    2.50837131955895
C         5.03083068165633   -0.75575550122435    2.92598726150579
C         5.66181824534913    0.28093091872631    1.97496261762336
C         4.64707643799939    1.28086486332411    1.38382348161968
C         3.30795066570122    0.61651489604214    1.01306907502721
C         2.79491996145515   -0.08761805643490    2.27239378143782
N         1.37299360013720   -0.35044319374512    2.07404961043209
N         6.72359225140860    0.99271194778367    2.68734162640729
C         7.46687134022279    1.74812280725577    1.84187651573290
N         7.53608913534551    1.63311051060011    0.50976221055248
S         8.54360271145508    2.83940140241674   -0.05524251969374
N         8.81360827509419    3.51486594517038    1.44775944251867
N         8.15369986794468    2.84179391007536    2.37271148947478
H         1.33952884485107    0.57080220890280   -0.59715840543706
H         1.90169696841354   -0.48569796635032   -1.88368320889352
H         2.57831258400803    1.21582212512694   -1.75865051823119
H         4.29189527436764   -0.18238232125634   -0.74747653251519
H         3.15854088916915   -2.36142009489167   -0.78023414569782
H         1.89262762925173   -1.68898801336770    0.25048750373296
H         4.79666919033017   -2.20782471001917    0.99130686121611
H         3.44335315542522   -3.27023707207878    1.45483235346196
H         3.36500239778525   -1.79947432807565    3.45569362312054
H         5.65294858189467   -1.64982784270999    3.06429753779310
H         5.01151586973756   -0.31130313024934    3.93246719818817
H         6.18113219227712   -0.28073979183304    1.18907032126229
H         5.03887197722657    1.80040671968827    0.49808485726727
H         4.35167698946711    2.06088757435550    2.10357985136073
H         2.52424440746998    1.38462428868423    0.94138713338705
H         3.02683864707733    0.61219576806113    3.08560462427322
H         0.80486647461140    0.44610313108979    1.78179663933877
H         0.83532331899984   -0.66874291341452    2.88088940343723
H         6.52236846549195    1.58585197043552    3.49016003045784
