36
 energy: -51.087942840649 gnorm: 0.134434217992 xtb: 6.4.1 (79825abcba525fcdf90b791dcacef51065a7a4e7)
C         1.21119825337155   -0.39761325049172   -0.57761929548761
C         2.65619912119347   -0.04147490925807   -0.17762303171495
C         3.79946963225907   -1.07041295830839   -0.23971863979469
C         3.96182947371396   -1.92016196935691    1.01796420139379
C         4.13008012490622   -1.05153342145955    2.26673997422678
C         5.32216372055679   -0.08437618016163    2.17906678950116
C         5.15313517473384    1.18727852028301    1.32370978755678
C         3.71721936745308    1.71621313751954    1.13034921555980
C         2.59269148376677    0.66603807881959    1.19851803663470
C         2.88607701873603   -0.18175683039758    2.43951407606278
N         1.75957958343261   -1.03707827815144    2.79968184069340
N         5.96456915729625    2.24508465965647    1.92711778217642
C         7.28774760160040    2.15201519644023    1.64701511481614
N         7.78298742213513    1.51295600212006    0.57982800446064
S         9.44875677614707    1.63254714892161    0.59885650607504
N         9.47855779071501    2.49950511525375    2.02562419411838
N         8.25592775445245    2.74199989810044    2.46198807161090
H         0.63607596814065    0.53448770350476   -0.60527759175888
H         0.73507880769776   -1.13816355108274    0.07512601299414
H         1.10014892739501   -0.89244708880747   -1.54618367589136
H         2.93304410850532    0.60557812211853   -1.02172931237318
H         4.73120833899076   -0.60401996648863   -0.58714032940919
H         3.47411149325075   -1.76621346632870   -1.02623035820718
H         4.83727362932102   -2.57287675812792    0.90013589180097
H         3.18754958729539   -2.67251514217635    1.22606976337956
H         4.17571964494888   -1.64335005374838    3.19535553162991
H         6.20738336815241   -0.64940129152292    1.85866304086505
H         5.55598817870182    0.27774850367024    3.19154132671543
H         5.64391795640564    1.12633419892989    0.34482995143460
H         3.62891291719668    2.31616335061527    0.21371290318429
H         3.56015549878201    2.41136807207257    1.97048972425446
H         1.64108553920053    1.21576168853029    1.15882017575855
H         3.06556096474152    0.57302707004493    3.21599609600202
H         1.57920715286861   -1.68248896293034    2.02924227444731
H         0.94020825492404   -0.43435792288293    2.88186035696861
H         5.78879657105559    2.74748845845293    2.79517187177711
