36
 energy: -51.095420084218 gnorm: 0.119903421305 xtb: 6.4.1 (79825abcba525fcdf90b791dcacef51065a7a4e7)
C         1.74855098950458    0.45266672138206   -1.07197210851366
C         2.92466634025179    0.04107159316335   -0.16521899930493
C         2.99318087542391   -1.49303063073885   -0.05810688317059
C         4.12896544781510   -1.90552972352689    0.87465148073250
C         3.94189308782938   -1.32305062554632    2.27750101769542
C         5.13504784750159   -0.46659212519934    2.73247752488457
C         5.27353805775521    0.74926128539977    1.79448343375261
C         3.98830113264213    1.55523546935869    1.51594074685798
C         2.75910860285209    0.66899711589866    1.24072278403481
C         2.74254659366410   -0.38002954343823    2.35614703017823
N         1.53422098473203   -1.19828042351982    2.38273271565454
N         6.25074114410253    1.67700568362273    2.36531143561483
C         7.36159760910997    2.00149415448551    1.65917705902536
N         7.98388325311794    1.30906721510990    0.69696452675414
S         9.42346720130775    2.07133439502855    0.32818482719856
N         9.16790295905662    3.32696676358002    1.39881292522219
N         8.03662117057101    3.15669210115725    2.05854727544892
H         0.86778512992596    0.22037478791570   -0.46317429362321
H         1.75999718954694   -0.07956608795825   -2.02997948894795
H         1.61400498073387    1.52388530587090   -1.24430191342961
H         3.85485970462413    0.41917230226590   -0.61200346035269
H         3.08908988493306   -1.82904789331681   -1.09938261352732
H         2.05915061185458   -1.86294819286941    0.38837426856122
H         5.07193146325681   -1.54733362107720    0.44010202172613
H         4.14865440419854   -3.00438721135021    0.84339227147699
H         3.65369454639468   -2.09118995002108    3.01340885297982
H         6.05524967365317   -1.06388756813717    2.68783969418664
H         4.98477834348969   -0.25348538732326    3.80155069548417
H         5.78099560076523    0.33171903115994    0.91645553301264
H         4.24561415819519    2.17747308929334    0.64728040994908
H         3.77225983008464    2.08329444948300    2.45839785016077
H         1.79352077395709    1.19510389829801    1.25405112263754
H         2.89952203853576    0.16371759582542    3.29664440899403
H         0.61269623108689   -0.76401054126400    2.31296107797487
H         1.58420302360403   -1.73037510666085    3.25208394128406
H         5.87597051727066    2.48829453551692    2.85334920836923
