36
 energy: -51.082569354739 gnorm: 0.127284289159 xtb: 6.4.1 (79825abcba525fcdf90b791dcacef51065a7a4e7)
C         0.81487913848325   -0.76249896857516    0.13113073040650
C         2.31414491638243   -0.65893303495732   -0.20994892592785
C         3.11792440474577   -1.94852324984458    0.03608467375545
C         3.65184622387964   -2.16465302144210    1.44973799504711
C         4.15799379427297   -0.88335820553209    2.11634364159451
C         5.50274800811519   -0.58226899782497    1.43434326993170
C         5.59595350399822    0.74642335360411    0.65768286227469
C         4.27152942998185    0.95999876494467   -0.10343527401740
C         2.91944319508929    0.56560270775138    0.51977595209540
C         3.17819166009016    0.28322385868562    2.00241345809512
N         2.01290219573130    0.22417927970114    2.87928649523169
N         5.97915580792613    1.82451660666161    1.57001563626580
C         7.25978942051615    2.26089286617683    1.65646758398184
N         8.22351663678321    1.86904211636779    0.81371595202162
S         9.61932942554694    2.60013210900138    1.36749005484578
N         8.92868728456145    3.31532822428674    2.70901090938713
N         7.62551493429367    3.10135959097055    2.70979384716143
H         0.51227873433980    0.08508878464501    0.75592735582432
H         0.67453027883879   -1.62130586681505    0.79741433471225
H         0.07326318338410   -0.90169451926373   -0.66003286234069
H         2.40825174783725   -0.47354361461870   -1.28912031717642
H         3.89066324031552   -2.08415926847827   -0.73257576128944
H         2.48995808718817   -2.84177089283666   -0.09183687572090
H         4.39865788538540   -2.95498410813939    1.60456603780241
H         2.79462806709280   -2.39510665482336    2.09852205540189
H         4.36968797649254   -1.09510671445433    3.17700613943718
H         5.73852149485587   -1.40927851871095    0.75170726161009
H         6.28807394418760   -0.57481573384868    2.20513539595603
H         6.39867087619533    0.64152525562968   -0.08220153367080
H         4.30530870908240    0.36944475816390   -1.02975345558307
H         4.20430064039994    2.03400887158490   -0.33950331175694
H         2.29865496008807    1.46180832885624    0.37568106339600
H         3.53849172080308    1.29067409170711    2.24749607396947
H         2.36066133378523    0.09058137779370    3.83001331365240
H         1.46234165893642   -0.61503555808058    2.69490627099404
H         5.29930911212233    2.16701687187198    2.24627411492590
