36
 energy: -51.098563516555 gnorm: 0.119376836733 xtb: 6.4.1 (79825abcba525fcdf90b791dcacef51065a7a4e7)
C         1.62176619239624    0.23296400735226   -0.95844142305350
C         2.88397977328301    0.09573212791397   -0.08503236121866
C         3.26500164205202   -1.39534963738234   -0.11871351515509
C         4.31817512781682   -1.73676859350178    0.93221892651922
C         4.04830550679680   -1.13217921049220    2.31204025858642
C         5.19136357735279   -0.17038157123138    2.67605487937218
C         5.19630301626782    1.08994138892718    1.78786930107074
C         3.76006475003585    1.64321497062945    1.68725932271632
C         2.63310946254229    0.65328762409271    1.33784083365434
C         2.67441419323449   -0.46760128720952    2.38033999561687
N         1.63958831458192   -1.46934582319144    2.14383333917413
N         6.12011683013770    2.13521157468974    2.22997608363540
C         7.37718722691099    2.14531633787528    1.72244037043778
N         7.67807624037287    1.41003491946128    0.64476951108480
S         9.27429051403959    1.72264989517490    0.26552877319847
N         9.49282477083559    2.85222607705479    1.47568193572556
N         8.38489376314536    2.99684007015651    2.17968266562634
H         0.68614587258924   -0.21304989379820   -0.60343573325561
H         1.87179580626076   -0.11868981325677   -1.96591634199967
H         1.33912019993854    1.28340782438763   -1.06793337838256
H         3.66353520484511    0.65959259498258   -0.61624881355357
H         3.57731971659675   -1.55607127550836   -1.15938026109282
H         2.35856944705364   -2.01376455797332   -0.05132934255279
H         5.27500373176592   -1.42869864201001    0.48961918448347
H         4.40394368715110   -2.82752677570984    1.04058375039148
H         4.13672934595305   -1.95737929900240    3.03721804658057
H         6.05495795620032   -0.83132725018074    2.52478905483161
H         5.10342969735485    0.20278215461047    3.70752438257725
H         5.50795246768490    0.83025421508707    0.76893609104320
H         3.75377407593705    2.46595032199385    0.95854304942249
H         3.45720679910904    2.11927396560596    2.63351004005974
H         1.76874080876212    1.33307124531399    1.32851692919484
H         2.56203103792442   -0.03863057782023    3.38442751115395
H         0.75529266377851   -0.97472370171977    2.27046847721907
H         1.64689660536909   -2.33474978451921    2.68458936757792
H         5.88258566674638    2.60959655076390    3.09909133046272
