36
 energy: -51.091589472256 gnorm: 0.137022064336 xtb: 6.4.1 (79825abcba525fcdf90b791dcacef51065a7a4e7)
C         2.15340821817944    0.24793102513335   -1.22097666077522
C         3.21055943037748   -0.13734217510897   -0.16795480437848
C         3.17139708672148   -1.64956597643877    0.11714600051024
C         3.90709605604329   -2.19624400903497    1.33783863265462
C         3.65784930540655   -1.28590823705859    2.54259161256592
C         4.95517192438728   -0.53884819816155    2.89330299449259
C         5.45043633739896    0.56119977603440    1.93313652140627
C         4.30953022839806    1.51310538227579    1.51934499910962
C         3.07373880417015    0.67403398863024    1.14403647002982
C         2.59956868685472   -0.21112332385728    2.30013415868040
N         1.25620080707087   -0.74331059075068    2.09414478361272
N         6.56307212815835    1.30604423612535    2.52366891272707
C         7.43065032306805    1.98280850155035    1.73169742908587
N         7.35354018865373    2.05516950045684    0.39701942645429
S         8.74561592422713    2.82425641782952   -0.11296305420634
N         9.39777415471265    2.83826378580280    1.42413280756335
N         8.58662518068688    2.42253250422245    2.37977196941636
H         1.14217720378603    0.05393693755638   -0.84664930764918
H         2.23807816906887   -0.34385591193041   -2.13956261890990
H         2.25643807992303    1.30617742079921   -1.47555255161343
H         4.14997423333589    0.08959471803170   -0.69124795936701
H         3.68197221842255   -2.14334893800116   -0.72062052188383
H         2.14340965607682   -2.02343452875226    0.00732278903850
H         4.93939308638072   -2.36992654584706    1.00539338521480
H         3.62353559193947   -3.22271482980864    1.61134134192933
H         3.46991213797614   -1.85785689634217    3.46574445611532
H         5.75045795892423   -1.29541653133544    2.91880390221837
H         4.88867532037533   -0.06686348734306    3.88513036060145
H         5.77374642724728    0.13462048274603    0.97590697085549
H         4.64266942081840    2.08072483119289    0.63912519355558
H         4.03757219863109    2.11646959943713    2.40010376660210
H         2.27672516386755    1.42478898530948    1.04175197705690
H         2.52110767420036    0.48604283039592    3.14431473407857
H         0.57543088567933    0.00472113687624    1.95390514543524
H         0.96853730641044   -1.27370830319244    2.91714083549486
H         6.66569214415122    1.44043610334455    3.52777620189566
