36
 energy: -51.077072937408 gnorm: 0.136059671626 xtb: 6.4.1 (79825abcba525fcdf90b791dcacef51065a7a4e7)
C         2.22071711730693    0.23348928622721   -1.31544215637682
C         3.23236079281020   -0.18468148888305   -0.23074432062519
C         2.94484321024263   -1.65230412264715    0.13402188525659
C         3.88742951438116   -2.11171608421567    1.24337846645567
C         3.65514599530463   -1.21423258907658    2.46109460937065
C         4.97508911211658   -0.53308482423408    2.85849997243282
C         5.37564824410063    0.52240898417953    1.80835844098125
C         4.20188227729917    1.44631567175985    1.42406128705369
C         2.93763648586762    0.65730967053115    1.03517853472231
C         2.59641838124947   -0.12364359326523    2.30741466717310
N         1.28490778172734   -0.76297254306083    2.26880669750272
N         6.52448109351987    1.23161566924223    2.37288401998750
C         7.52243777532582    1.80232839196443    1.65435073777355
N         7.69767784374051    1.76504532865386    0.32753185196223
S         8.90333287427989    2.88834722199496    0.05542804892510
N         9.28442276519271    3.22048927003856    1.64684955472039
N         8.45664640029548    2.52175267093217    2.40222682386512
H         1.29729168371160    0.39765805561074   -0.74915873448517
H         2.03892814574639   -0.52018514980378   -2.09010888876847
H         2.54310951659358    1.14712251607918   -1.82204547579381
H         4.28983150129236    0.00769183821312   -0.46005727138171
H         3.08183849566970   -2.44034550400241   -0.61869611033855
H         1.98882575352494   -1.73947440207441    0.66977270533534
H         4.91544574994780   -2.23380576797595    0.87650064584132
H         3.60401469607124   -3.13070496180208    1.54369547974834
H         3.48977744393971   -1.80968203018347    3.37364598084956
H         5.82758919988478   -1.22327925219231    2.90750059488479
H         4.90616659116991   -0.13334134187702    3.88142114008735
H         5.75289592450440   -0.09030075019245    0.98067572271570
H         4.41754050472368    2.02066248608367    0.51215245612503
H         3.99450931393302    2.23914421226804    2.16037975702012
H         2.03169054169334    1.21824189103725    0.76325413065803
H         2.67346495926226    0.65606386030859    3.07615240196079
H         0.48777805110529   -0.12946763975097    2.34576142164349
H         1.21694870629340   -1.34644503704786    3.10327415132625
H         6.71556863390177    1.15048692943018    3.36974267335501
