36
 energy: -51.091960321670 gnorm: 0.131029835074 xtb: 6.4.1 (79825abcba525fcdf90b791dcacef51065a7a4e7)
C         1.31805421304891    0.16169518860739   -0.76141107674712
C         2.67803929483394    0.06766712526810   -0.04276068468591
C         3.23679678751373   -1.36662876177449   -0.02785197037368
C         4.51968385014884   -1.64582134011584    0.75089867506375
C         4.40319828645161   -0.94261795745458    2.10522542687010
C         5.37305506874583    0.24007201246010    2.26259557553916
C         4.98036811180085    1.37428902239389    1.29478321579846
C         3.54415897607098    1.87253873109663    1.55567587885056
C         2.61401697241572    0.65645487883860    1.38818385845494
C         2.98861326920459   -0.44031083727796    2.38902605983150
N         2.02389972453849   -1.53269711878507    2.30957731847399
N         5.89525328764266    2.46247406892342    1.64165296886988
C         7.19346314782950    2.11550527404642    1.46225270527553
N         7.72780449789427    1.38667780874691    0.47440792678433
S         9.38254606662240    1.44634840793703    0.69286027656865
N         9.33786159768754    2.26209398962521    2.14913384158082
N         8.08778009334615    2.58564386323143    2.42599675516452
H         0.48528834533570   -0.27577340693278   -0.19974831643982
H         1.34987787836896   -0.21327979883867   -1.79076132635060
H         1.01967008142248    1.20533342704467   -0.89216118957427
H         3.35015629769447    0.59510435086804   -0.73406735669167
H         3.26040671262173   -1.67403333965464   -1.08203710173863
H         2.48296286446343   -2.06045980867038    0.37080810424233
H         5.33804854933824   -1.19148550879627    0.17628509095291
H         4.72057671255550   -2.72370702647295    0.83248966471304
H         4.55908815998284   -1.71541997093764    2.87537617715762
H         6.43435155399277    0.00255441229552    2.11172821818745
H         5.27139175133780    0.59899258515902    3.29785084560282
H         5.18675303314180    1.10887263831905    0.25087367913204
H         3.37328189345371    2.68811119071665    0.83901485235080
H         3.40696952959809    2.22353286491888    2.59091870410759
H         1.54824302840248    0.87262546122462    1.55165268176884
H         3.04632306491517   -0.02613611860302    3.40389869332931
H         1.22090125445657   -1.31187458646183    2.90042176806180
H         2.40848631876946   -2.35906939896302    2.76848528350329
H         5.68600565382855    2.93725412150142    2.51779384477738
