36
 energy: -51.089643498604 gnorm: 0.121295760432 xtb: 6.4.1 (79825abcba525fcdf90b791dcacef51065a7a4e7)
C         2.15677735976102   -0.05682923907679   -1.29849287872115
C         3.16699268769833   -0.37323999189889   -0.17857845014697
C         3.11893929938201   -1.83840636753752    0.29111856065591
C         3.94125768131017   -2.04828468572915    1.55995419790965
C         3.55469759738222   -1.08291593577092    2.68285193582607
C         4.87376509698849   -0.42136332987455    3.11476881241698
C         5.45926869975525    0.47366578600133    2.00417419754267
C         4.40982108641768    1.34636765952845    1.28579718982556
C         3.07424774791474    0.63861626005001    0.99014627175836
C         2.56986566605519    0.01928868177112    2.29664335027982
N         1.15192347139906   -0.32603077140925    2.27458604028823
N         6.61469384447772    1.22739043558511    2.49240775484657
C         7.53127568564583    1.86356588326036    1.72229145622131
N         7.46824308735644    1.82767800841555    0.38539714810974
S         8.77067358777516    2.73659627817623   -0.13131751271808
N         9.32196141555712    3.18497824370914    1.37971047997572
N         8.52816837353082    2.65696558485762    2.29356856178845
H         1.24822807724087    0.49954748356001   -1.04290343016187
H         1.87416449142467   -1.06198488422254   -1.63161902321475
H         2.63315365506647    0.51328065622947   -2.10058376575435
H         4.16691821413786   -0.26816403583105   -0.62236241355487
H         3.52715017098549   -2.55416157730623   -0.43511808673903
H         2.10405748330329   -2.21313838937620    0.48653549634588
H         4.92503818247859   -1.77161520730707    1.15752092765180
H         3.94170625709837   -3.11526016790049    1.82531378754763
H         3.15796816777642   -1.71310844069633    3.49532960145667
H         5.63395717503896   -1.10172583136284    3.52065138221893
H         4.58210280719735    0.22330073456857    3.95753463246982
H         5.79243908315860   -0.22090349232393    1.22355987942194
H         4.91317946317318    1.68747069865658    0.37024298468259
H         4.15835490048834    2.22966733196013    1.89431339220608
H         2.30437875560838    1.35992079617529    0.67974751991959
H         2.69962857184361    0.78847312324098    3.06888325856828
H         1.05484435504890   -1.21733505369288    1.78589531881371
H         0.67007407637073    0.36515363348568    1.69884321962107
H         6.59785391132868    1.70944920119781    3.38915702189476
