36
 energy: -51.081423424694 gnorm: 0.119820360028 xtb: 6.4.1 (79825abcba525fcdf90b791dcacef51065a7a4e7)
C         0.98060910505828   -1.06772939095677   -0.04600117075580
C         2.41139433612207   -0.51442870345679   -0.19287199993628
C         3.37050877961236   -1.71105658466280   -0.05938752605816
C         3.40330349017701   -2.15413739273734    1.40102480908162
C         3.91493142039667   -1.00966403615837    2.27890999925544
C         5.36425755171968   -0.64441928247249    1.91808720569067
C         5.58401083885573    0.52819200312818    0.94135632407307
C         4.35647499023756    1.10597773894974    0.20764402759112
C         2.96568884500857    0.64026702878561    0.67764939139059
C         3.03293412983342    0.23123307454681    2.15178364107420
N         1.72139241849824    0.20092630416778    2.79149601830335
N         6.10000688101747    1.64074148566888    1.73976840823191
C         7.29820240373351    2.26320724539723    1.61817710450673
N         8.13876853619482    2.05551426774730    0.59697211016704
S         9.66552408794068    2.58019943066527    1.02496116051259
N         9.13237638613818    3.22245081820158    2.47114127829590
N         7.84076427916906    3.02052599402466    2.65823987859163
H         0.31047753227467   -0.20842621274068    0.06742080077330
H         0.76391296548203   -1.68773344545988    0.83139194195675
H         0.82308919403572   -1.66694428901978   -0.94679994777166
H         2.56198865430337   -0.05951749004529   -1.18191868918246
H         4.36260850779722   -1.37318179096055   -0.38792983689747
H         2.91462975238494   -2.47245537894633   -0.70826590573324
H         3.95711476515848   -3.09808837079233    1.49361107247280
H         2.41662911266077   -2.45421312685233    1.78218200793598
H         3.88455990441262   -1.36913652381560    3.32030995563199
H         5.86517781652003   -1.51941687681014    1.48336444108171
H         5.95836422431791   -0.49401494089321    2.83205036047376
H         6.40580086601083    0.24240632028724    0.27369220390402
H         4.54763594425596    0.91005477047426   -0.85679578062582
H         4.37093394507252    2.19034001294890    0.40179581533955
H         2.32700390740512    1.51770986412315    0.50016282736450
H         3.47991319116386    1.00271813374159    2.79198524303829
H         1.04203025451682   -0.25249958760366    2.17868421658589
H         1.42641708805519    1.17123790538567    2.90498374199618
H         5.45168324833270    2.08034365469548    2.39034498492616
