36
 energy: -51.084514253725 gnorm: 0.128354647275 xtb: 6.4.1 (79825abcba525fcdf90b791dcacef51065a7a4e7)
C         2.63474066970438    0.49337591389533   -1.22976949710300
C         3.42152871284516    0.00784634463918    0.00314767495412
C         3.22010867279718   -1.51816673868278   -0.01558742391578
C         4.06883854523078   -2.00067238290269    1.15788871181312
C         3.70092454736328   -1.29786228139763    2.46669050798055
C         4.90390223816717   -0.54757489232345    3.06171711149595
C         5.34491427665555    0.59847214949022    2.12930271838302
C         4.14537489108217    1.53068533528562    1.86266010526422
C         2.96842851098084    0.70562143931374    1.30935683550536
C         2.53422221131136   -0.31704921839884    2.36316527672436
N         1.21282426539268   -0.83293225169398    2.01956038348449
N         6.54178018442407    1.29495215475309    2.60249165949871
C         7.38084345994035    1.89167905824567    1.72055603604986
N         7.25659224890669    1.69794608849533    0.40162592687727
S         8.59060410389282    2.43855802683032   -0.27760746480710
N         9.20960342321574    3.04065381993915    1.15154989181340
N         8.44693605389635    2.67566725872011    2.16602741918050
H         1.60964827942968    0.11558214765590   -1.31223340180938
H         3.23020083546873    0.22283504403880   -2.10921009605443
H         2.54815069945694    1.56924405926570   -1.40389410016582
H         4.50839067623611    0.17001613395755   -0.01323145824341
H         3.70795865066629   -2.00949354078112   -0.86820790873684
H         2.21112225871218   -1.95359160771223   -0.04638648699522
H         5.11191542159547   -1.81703943589155    0.86704134381626
H         3.98478115794299   -3.09677106939678    1.17672042013590
H         3.40032643051504   -2.03750499284147    3.22644457739806
H         5.77302897842319   -1.19931487655480    3.22102660780648
H         4.63715357457888   -0.25163471079654    4.08747412174484
H         5.76087065319919    0.12258567695612    1.23303262350259
H         4.36180824792810    2.25518396476763    1.06502685659977
H         4.03353621247630    2.04433923397304    2.83085292339174
H         2.16925528228221    1.44624745497485    1.16062496352772
H         2.37268398845177    0.17689658668803    3.32999543642006
H         0.60684227865574   -0.07269604184666    1.70732162510701
H         0.79561031791398   -1.36562925326371    2.78347199375836
H         6.66446699790321    1.56091629474188    3.57770164284091
