36
 energy: -51.085570066715 gnorm: 0.132706577022 xtb: 6.4.1 (79825abcba525fcdf90b791dcacef51065a7a4e7)
C         0.90926829271444   -1.05347020026848    0.22428068487701
C         2.30635836492087   -0.60742248470769   -0.24904780308293
C         3.29211883426498   -1.78876193320769   -0.20056774833236
C         3.60783356014073   -2.13054297622101    1.25329270416152
C         4.17542351456537   -0.94448091204187    2.03646780946220
C         5.49385369313503   -0.36546666464904    1.49736908019421
C         5.44247204712234    0.90810240294255    0.62978984620497
C         4.07613099499879    1.20490058349529   -0.02139164841288
C         2.85377888719544    0.53849865301926    0.63727474931394
C         3.23083011194033    0.25482341704797    2.09407372487389
N         2.12011220184625   -0.04914149447413    2.99084747987633
N         5.85669854438602    2.02098665605278    1.48500045588934
C         7.18286702328440    2.22183045302401    1.68212867927936
N         8.16084048770448    1.42400852783261    1.23536753358224
S         9.62809931320750    2.14975590149214    1.56687010284149
N         8.94476232740397    3.47336754897091    2.32137193895949
N         7.62927736485398    3.36162844069543    2.35385333669730
H         0.09928001125581   -0.31949903222266    0.14979491583282
H         0.89090011522920   -1.37833793331913    1.27084864345638
H         0.66330137967160   -1.88850186255611   -0.43718122560151
H         2.16053607704744   -0.39341858306751   -1.31711821129640
H         4.26467975674503   -1.53003201468476   -0.64050567806971
H         2.88810150111853   -2.58983893814351   -0.83589647254221
H         4.20391655125660   -3.04811096713518    1.34856412995064
H         2.69850600559475   -2.32347806461299    1.84044859852034
H         4.47203048043765   -1.25185656952925    3.05244088695165
H         6.09705906056431   -1.11490154122696    0.96820328565433
H         6.14615280016215   -0.08291270067115    2.33735836700784
H         6.23560608780956    0.94439214762978   -0.12678740734101
H         4.15910577199281    0.79137502304884   -1.03631639367416
H         4.00199811874453    2.28590228215686   -0.22060298812970
H         2.06186225301512    1.29803325358623    0.71008348181299
H         3.84867265667003    1.04887070726707    2.53293255104708
H         1.52969669768741    0.78074801891463    2.91764072904930
H         2.58361893151593   -0.09400326497177    3.89889122980208
H         5.27542452030354    2.74446561249846    1.90395413179878
