36
 energy: -51.087304578809 gnorm: 0.122713374199 xtb: 6.4.1 (79825abcba525fcdf90b791dcacef51065a7a4e7)
C         1.30059950813737    0.18614750572316   -0.79071262762861
C         2.65686392312429    0.00844585044253   -0.08090416463294
C         3.03541735437048   -1.47859820021300   -0.20351816120618
C         4.06441660417468   -1.82233850932893    0.87035493402832
C         3.98298191699804   -1.20061327909881    2.26645341272822
C         5.11913247695668   -0.24035496893747    2.65530941223494
C         5.27127781890478    0.88529533763866    1.61268043075193
C         3.91881247149482    1.61605505435444    1.48681488959775
C         2.71418947903501    0.67144299544477    1.31749518158252
C         2.68460501114473   -0.40736580693303    2.40386476520656
N         1.57088453032901   -1.31426635684919    2.14415298993465
N         6.27155266216410    1.86747785768010    2.03249930307440
C         7.57708832668156    2.02774151463327    1.70415071319264
N         8.10226494104749    1.32269283195821    0.69437680801865
S         9.58482268217336    2.04561624480359    0.43197261790060
N         9.49123490426574    3.13883178587280    1.69065898119352
N         8.33446282554605    3.02737493319967    2.31795244417232
H         0.41588655664914   -0.12083796094606   -0.22204247853249
H         1.38837723237616   -0.40927711647961   -1.70665231999596
H         1.22880148471427    1.24593370443685   -1.04957111303218
H         3.28441407357948    0.55598842028630   -0.79799143824097
H         3.42280137038060   -1.61419251508910   -1.22229640128010
H         2.16012783066226   -2.13301523816011   -0.08433951709184
H         5.04547041694520   -1.67679940492896    0.39847106663213
H         3.91022502397175   -2.89352222649010    1.06437295841800
H         4.06669561876097   -2.05879832021806    2.95286964051756
H         6.10684546381424   -0.71200676158684    2.74187406809915
H         4.87085385055818    0.13894666415981    3.65800621024328
H         5.65689175186608    0.44789048468833    0.68382813357451
H         3.99889224852226    2.19773056597308    0.55772863109940
H         3.75183510801725    2.14004008660257    2.44143721420634
H         1.82092032565486    1.30812074116117    1.39519683759926
H         2.63087405641125    0.08316196374779    3.38434070725847
H         0.65025627484652   -0.88387914184329    2.04477111630497
H         1.42613496289955   -1.91335320861388    2.95750225239558
H         5.82111400354252    2.64689143590087    2.50835955955919
