36
 energy: -51.089104713930 gnorm: 0.127424652247 xtb: 6.4.1 (79825abcba525fcdf90b791dcacef51065a7a4e7)
C         1.85418590376204    0.34689039619224   -0.98106548676271
C         3.09336744063924    0.13167175629345   -0.09057732917777
C         3.41470217625897   -1.37254120805526   -0.15160399494041
C         4.33151332130260   -1.72762617695638    1.01611698017252
C         3.88663264533679   -1.20320909237895    2.38335241523307
C         4.93738296449876   -0.25958299440747    2.99132992024923
C         5.26300136373981    0.95671901793221    2.10144562223087
C         3.93441941154761    1.68248147017081    1.80622831209328
C         2.82186551215461    0.74187064961243    1.30667575664584
C         2.56902412777019   -0.44278575470055    2.24345906725050
N         1.45997278983207   -1.30985632733337    1.85812043673356
N         6.29091669856616    1.90813253950131    2.52533537994265
C         7.41057929014791    2.03666249356278    1.77183928643933
N         7.70268644452484    1.17079915322871    0.79331920109932
S         9.06234548646836    1.77021740965375    0.03077299446719
N         9.23124778616128    3.06249533713710    1.07464081395147
N         8.27565988600333    3.11179124346366    1.98484026672735
H         1.10967652462725   -0.37003869450249   -0.61766310551396
H         2.13671616743338    0.03704928365224   -1.99366415617979
H         1.43708849723070    1.35328404224571   -0.88881019001921
H         3.93450489299694    0.71385260303724   -0.49231040549108
H         3.96562848651999   -1.58114818113343   -1.07860163809040
H         2.54131130100776   -2.04013537580182   -0.16177088668208
H         5.32636953646363   -1.29787420300143    0.83751979555831
H         4.41480551538062   -2.82283731900128    0.96684677595958
H         3.75678112894901   -1.99689725648507    3.13691360162517
H         5.90998504321633   -0.73156848246760    3.18316497615309
H         4.51684609719440    0.20935282846955    3.89363852203980
H         5.63938980807464    0.55766066260467    1.15177626948080
H         4.06598823736379    2.30205801618287    0.90802176949949
H         3.63346146562308    2.26751984045661    2.68991374571696
H         1.92805662761131    1.37270032036449    1.19493730619797
H         2.40525079868367    0.02856415300241    3.22113239929739
H         0.58626129868376   -0.78913821768457    1.94838214719119
H         1.37993414609009   -2.23811234518677    2.27444853955277
H         6.41664110733579    1.99235959719830    3.53227265282049
