36
 energy: -51.095871201305 gnorm: 0.130732305167 xtb: 6.4.1 (79825abcba525fcdf90b791dcacef51065a7a4e7)
C         2.02741021757626    0.29675395570749   -1.24244620309370
C         3.05536147850881   -0.04581820220000   -0.14662705576553
C         3.01606941819402   -1.57578442314269    0.01858913326275
C         4.04435880394401   -2.04998508583424    1.04228583293005
C         3.94518362428885   -1.22693065621168    2.32875794107496
C         5.14513718842706   -0.32043317689204    2.64894044078914
C         5.25152896966615    0.82535788399050    1.62270672265192
C         3.93160618949500    1.61568983764278    1.51228173527189
C         2.77311131630569    0.64709355475756    1.20931552746028
C         2.70313692431809   -0.33883669522497    2.37890845925938
N         1.42285986032077   -1.03840648076906    2.42115571647725
N         6.18643832559229    1.75372660562241    2.25953966510494
C         7.33760197095693    2.09248603809882    1.62867918608276
N         7.66008546126382    1.66507471596899    0.40153965774144
S         9.20535266450293    2.25537931814643    0.17101542637996
N         9.36189993778320    2.91691612337847    1.69614894822174
N         8.28210243775941    2.73237059887043    2.43372719777956
H         1.09374753148064   -0.18851137034736   -0.93726695374115
H         2.39902026435342   -0.11791773169436   -2.18644529788062
H         1.93224587155248    1.37909244249171   -1.36408747915241
H         4.05937548234850    0.27235372054018   -0.46056767376127
H         3.09037682734562   -2.04246980826197   -0.97289684559678
H         2.02773690585933   -1.83087533310931    0.42690816379849
H         5.06818302589622   -2.05367639103410    0.64467682873921
H         3.90351107209379   -3.10493520806420    1.31813857367589
H         3.90288691843512   -1.96253842670744    3.14836087354719
H         6.14803604015475   -0.75578323157706    2.74988599724979
H         4.86897193045041    0.04208837133116    3.65055101813127
H         5.65532337551980    0.48414360902847    0.66181620175054
H         3.98945361925908    2.31364028876112    0.66524024657224
H         3.81255746290589    2.17457194389703    2.45420727417668
H         1.89834465218104    1.31142034652010    1.15659872625837
H         2.80494418656126    0.20748969411274    3.32548139594386
H         0.65426539626489   -0.40244062448949    2.63904621056326
H         1.46849379263678   -1.74101932788688    3.15983510568018
H         6.20504133361543    1.70608023568758    3.27649947196709
