36
 energy: -51.085271704111 gnorm: 0.124918623106 xtb: 6.4.1 (79825abcba525fcdf90b791dcacef51065a7a4e7)
C         1.20019761227913    0.05502352481041   -0.35562821229768
C         2.68135289230126   -0.35278147236762   -0.23424757459939
C         2.82307690828843   -1.84915503469343    0.09804360941021
C         3.06919158473021   -2.16434661449833    1.57123136658981
C         4.05983290597166   -1.22771209328027    2.26665241940002
C         5.46674750695228   -1.39387940626370    1.66905483110318
C         6.06052323706153   -0.11768051209605    1.03972279584884
C         5.04283221610685    0.51187568495400    0.06659462948112
C         3.60229290487632    0.56321126068297    0.60907860696165
C         3.49994556736472    0.18253369021359    2.08877865037121
N         2.14605018210220    0.29810118017444    2.62160469917874
N         6.39877766629233    0.82077538444944    2.11040699127206
C         7.17242709604171    1.91768106002177    1.92018313754007
N         7.40490698019632    2.44470649713420    0.71157040183916
S         8.49731476354980    3.70158081574696    0.83949164907881
N         8.73567942591579    3.40862912563111    2.46600074697823
N         7.97669589461188    2.43598456342001    2.93711422946303
H         1.09199625651426    0.91567679965575   -1.02488992595357
H         0.75548808043623    0.38548318661197    0.58999897752043
H         0.57692198765841   -0.72824387237471   -0.79532031704301
H         3.07279214712382   -0.09802524873758   -1.22908968310914
H         3.55399046231129   -2.27320483152727   -0.60360335670426
H         1.80484810220263   -2.20905639071158   -0.10757277372694
H         3.27850623074852   -3.22742144982469    1.75118106702851
H         2.15145231564881   -2.00882064774607    2.15639708652737
H         4.00463646902644   -1.47436551837079    3.33939295350382
H         5.41442855141445   -2.24918919542039    0.98259018967956
H         6.18192015280806   -1.78360147675714    2.40902623847120
H         6.95690791083020   -0.45436070123233    0.50499980127275
H         5.11324882890467   -0.10665775909943   -0.83917484559167
H         5.42042706672364    1.52928317357763   -0.12327290648705
H         3.20630059285497    1.58203029090021    0.48856393447687
H         4.22593032557735    0.76861212002421    2.66696185482554
H         1.78395541562375    1.16097395727830    2.21294315622016
H         2.12577666707586    0.47577906231955    3.62630071114845
H         6.47101680810153    0.46032657074042    3.05997618556052
