36
 energy: -51.092134411800 gnorm: 0.124196833462 xtb: 6.4.1 (79825abcba525fcdf90b791dcacef51065a7a4e7)
C         1.21090778328593    0.36300447432392   -0.77403484670082
C         2.53383041526233   -0.01203597438948   -0.07827663749239
C         2.86711286588988   -1.51488581530263   -0.07972422589894
C         4.14179736840251   -1.84560794171793    0.69228782191899
C         4.18751314194968   -1.11877973173446    2.03835456871161
C         5.30140112068995   -0.07268326689469    2.20887991912959
C         5.09562341608883    1.12666297795170    1.26202398058274
C         3.66385240632525    1.66970251015354    1.44683275007479
C         2.55365735231636    0.60747264885464    1.34094433391689
C         2.87904703811553   -0.42888824904195    2.42028683223564
N         1.80606763032944   -1.41778993111064    2.38741133315766
N         6.07077475356302    2.15684191341247    1.62159512349968
C         7.42184326262653    2.11065324481162    1.51960923695476
N         8.14464656686161    1.27465706914396    0.76382272824788
S         9.75723109159592    1.64996292906187    0.98329558488851
N         9.49084789912295    2.93863934058851    2.01116880412825
N         8.18659639427157    3.13081826366929    2.08886460192240
H         0.44368453305363   -0.11012475949086   -0.15125074158483
H         1.11999844603003   -0.01971708485717   -1.79699165499750
H         1.12763513700725    1.45286390069694   -0.79815036808883
H         3.33143894082305    0.49634633358512   -0.63792321952692
H         3.05693581849931   -1.76507285609325   -1.13221413067405
H         2.06195144525138   -2.08408448386909    0.40640840392360
H         5.11606953306452   -1.61387069881543    0.24127317679991
H         4.22483735569754   -2.94029887997447    0.75236034656617
H         4.42896595237023   -1.88733658137567    2.79047006167478
H         6.27470189393420   -0.53388287860427    1.99555778290633
H         5.34549638751382    0.32578634959828    3.23366792646654
H         5.24223103636042    0.72938143921548    0.25036133884983
H         3.54244761507759    2.55785504348832    0.81090318998295
H         3.54847752405878    2.15011312350085    2.43153566076342
H         1.54483005493212    0.97781011281478    1.57427573790252
H         3.01993498484008    0.13146657167744    3.35355563598822
H         0.89747995064541   -1.07398021535095    2.70194210903993
H         1.95624103411026   -2.27971680106583    2.91269652946309
H         5.64990759735032    2.94536942860602    2.10936422502044
