36
 energy: -51.095908569957 gnorm: 0.118799172002 xtb: 6.4.1 (79825abcba525fcdf90b791dcacef51065a7a4e7)
C         2.85127959625429    0.49491530761462   -1.30503000000007
C         3.53905373656988   -0.05703378992225   -0.04123491109760
C         3.08332326372697   -1.52525818256068    0.03790915194143
C         3.61913544336220   -2.20711426692253    1.29416464811641
C         3.61509195020128   -1.33472621186415    2.55161745109439
C         4.97063169837984   -0.75697407453814    2.99077292319274
C         5.50112444681549    0.40556960382960    2.12799740444942
C         4.44723938513359    1.46389286092405    1.74290969379372
C         3.18068415088868    0.75488542628780    1.22791070848888
C         2.63895148075918   -0.18491336119951    2.30874672040370
N         1.30683018870950   -0.71979911412831    2.04484861957546
N         6.71552909993069    1.05748431598874    2.61963617990343
C         7.46008586810137    1.78167632804748    1.74837171559632
N         7.31650832013796    1.66841038516955    0.42205962122194
S         8.38294785762543    2.74195775023469   -0.28480276828638
N         8.91508204362043    3.35631576418571    1.17381565005396
N         8.35331419574510    2.75271759816354    2.20538120796558
H         1.79387333267984    0.57935502082866   -1.03097753113981
H         2.76535459183837   -0.20442184011906   -2.14450922844773
H         3.30911549225381    1.39532925480959   -1.72330081179902
H         4.61747816099402    0.04884269884158   -0.22461197390478
H         3.49911155128979   -2.08475951206233   -0.81087801982012
H         1.98452640131302   -1.51045617836279    0.06989855136941
H         4.62519659927461   -2.62484260838636    1.15392706480417
H         3.01216126496916   -3.07862492777529    1.57860111263608
H         3.29655150157684   -1.91353356809773    3.43375735172129
H         5.72131517687429   -1.55820859669255    2.99560396557625
H         4.74278500780008   -0.45432733244429    4.02392523311302
H         5.87661847136655   -0.07542764678799    1.21671611762474
H         4.82062956267548    2.07733392804011    0.91090592515628
H         4.18083213478261    2.11340807256797    2.59196957789777
H         2.43447947601886    1.50831923785103    0.93663429102981
H         2.49525563867479    0.37995224365008    3.23886280620853
H         0.65044656734490    0.05818499606708    2.12588913054125
H         1.10569865024931   -1.45932422468918    2.71867591950873
H         6.68280219023455    1.55112805038841    3.50961837449414
