36
 energy: -51.088191931650 gnorm: 0.134151281288 xtb: 6.4.1 (79825abcba525fcdf90b791dcacef51065a7a4e7)
C         1.07365067746161    0.28524010016643   -0.68925697893462
C         2.47357894900640    0.00042368835496   -0.11138197517032
C         2.77157769078717   -1.50908889889451   -0.15834351641900
C         4.11828288333389   -1.72019825355794    0.52869231659848
C         4.16840791517701   -1.20382126265749    1.96852115465553
C         5.41417694355824   -0.32636120314331    2.17410917001995
C         5.22938326059753    0.99399557207482    1.39962789010754
C         3.80731680599507    1.59110887419367    1.38559020558629
C         2.64027021409430    0.58882195654557    1.31142286709115
C         2.88112468932500   -0.48771050398062    2.37348193949168
N         1.73141703356478   -1.33242994012609    2.68156221218265
N         6.14809922893023    1.99034234179692    1.95165524977153
C         7.46858745783034    2.06723893878446    1.65447124536396
N         8.22297884828257    1.12185840204536    1.08027902711071
S         9.76872343197826    1.74501997617703    0.97167423807748
N         9.34681507350307    3.26738264578622    1.51257671479780
N         8.08084954466727    3.30038320158103    1.88712123621061
H         0.94049614352009    1.25484178009114   -1.18168491170223
H         0.35338761601652    0.38282602308169    0.13103506216328
H         0.70055526615769   -0.48563100917226   -1.36886495136458
H         3.10069873484536    0.49651972409262   -0.86533535105071
H         2.90012516766235   -1.71498510727070   -1.22953145140605
H         1.90970292775987   -2.00501736065293    0.31051019862082
H         4.82637298917793   -1.22927209598484   -0.15242624934142
H         4.32266226364491   -2.79952196396775    0.48241080927202
H         4.28577097898332   -2.05926051034999    2.65343456079537
H         6.32189500364084   -0.82188732821565    1.80529002420059
H         5.55876909451991   -0.01965784802201    3.22098023200389
H         5.54596933967854    0.75350326687593    0.37751028898240
H         3.80255964210040    2.45774356483494    0.70965966478802
H         3.62975653149396    1.97430311157437    2.40312647309535
H         1.69865954753984    1.10073620586728    1.55767275658367
H         3.17909200114061    0.15809758266953    3.20953514714751
H         1.08411777408140   -0.66453602668467    3.10297375167113
H         2.03732527593117   -2.02636832792105    3.36439760295406
H         5.66439092409579    2.83526068587320    2.24992148671602
