36
 energy: -51.090915066597 gnorm: 0.118598991482 xtb: 6.4.1 (79825abcba525fcdf90b791dcacef51065a7a4e7)
C         2.01690648489131   -0.40551338474514   -0.98285679108706
C         3.26225553624639    0.07941347294087   -0.21551675039265
C         4.17192866872813   -1.13773983742011    0.03079498149120
C         3.95999233511466   -1.85526833507834    1.36137233155516
C         3.66958143787315   -1.03959189007708    2.62335420230859
C         4.89375281286015   -0.27617506093701    3.15508934297355
C         5.34130035948780    0.74395838722797    2.08909639967929
C         4.19615162011123    1.64155650205260    1.57726986820036
C         2.97145356981926    0.83658132839280    1.10376455245123
C         2.56419331214658   -0.03822007186338    2.29278266703304
N         1.27183655210445   -0.69093376948524    2.10819958908562
N         6.39047740050247    1.58552180167916    2.66570610945079
C         7.24882842751647    2.06294652721473    1.73124379470916
N         7.31272675007045    1.44569800001707    0.54487590863241
S         8.76036774255228    1.85370709365074   -0.18128923575446
N         9.22184218198070    2.84880276418162    1.07767708780199
N         8.32172471375248    2.90053934703283    2.04263990606094
H         1.86658484471629   -1.48467193667411   -0.86812651123004
H         2.16629437218156   -0.20150528604116   -2.04927363023995
H         1.12914061263700    0.15395756226620   -0.67597984311737
H         3.76289404161857    0.75862270252306   -0.91969861503436
H         5.23343400874755   -0.86583272695163   -0.04426643908006
H         3.93956942500931   -1.90335356741202   -0.72315577582594
H         4.80797926576198   -2.51111604128646    1.60033789054657
H         3.11082948052324   -2.55086771243430    1.29879013842642
H         3.21686539526812   -1.70345273634905    3.37767093066471
H         5.74075193235359   -0.94572281445223    3.35464907245607
H         4.63770760973652    0.28430128792684    4.06680200960044
H         5.82649411820866    0.31406496402994    1.20446858174580
H         4.59994251783752    2.30659507838359    0.80097286576984
H         3.85910250059726    2.30438070947760    2.39017053067446
H         2.19519838598771    1.60540783273199    0.97862642235841
H         2.49058372716868    0.72295406077734    3.08020449443024
H         1.25970484121152   -1.42363497862556    1.39709618747943
H         0.65472385826591   -0.01058296125363    1.66357703882915
H         6.23381146445579    1.77221781092728    3.65435361404138
