36
 energy: -51.081934933710 gnorm: 0.130796468535 xtb: 6.4.1 (79825abcba525fcdf90b791dcacef51065a7a4e7)
C         2.60713399970913    0.45570016662034   -1.29869115626396
C         3.45499932621429   -0.14863089325002   -0.16257168662724
C         3.09536358328270   -1.62261877705466    0.09754128506914
C         3.80287485751168   -2.12271861935789    1.35433412078547
C         3.61357813257046   -1.28790648512036    2.62300282853857
C         4.99052661089517   -0.74285865061384    3.03661961855583
C         5.47049346486884    0.31389465723300    2.02162392034558
C         4.45427473710103    1.40053170854344    1.61476544053079
C         3.19025004141465    0.66895306907059    1.12577471376071
C         2.67738701063284   -0.11500098147169    2.33709221809827
N         1.33823771693669   -0.65590138527467    2.12638381029483
N         6.72958942939380    0.89783417979063    2.48549043404271
C         7.49535976176873    1.67346700979907    1.67932040277404
N         7.16012412179051    1.96556029186856    0.41644826716357
S         8.25853368856415    3.09688751319377   -0.13404860756151
N         9.16041294406756    3.10479249476117    1.27119926062137
N         8.58147698953571    2.37458584276030    2.20697314605838
H         1.97099839468598    1.33126864633719   -1.12823838230973
H         1.80463987999382   -0.22465290061577   -1.60578042415894
H         3.10582462174346    0.66122283967752   -2.24967882525340
H         4.51294017520575   -0.04701664716838   -0.44234286809554
H         3.23087131551811   -2.33585945445719   -0.72664721481445
H         2.02839448551235   -1.75043585911120    0.32956865904118
H         4.88732968654024   -2.17472649076899    1.18827537103208
H         3.37903473471620   -3.12730788787072    1.49579981906306
H         3.29174330189340   -1.85483143254590    3.51163955376856
H         5.82062620577808   -1.46048154964069    3.07506221595785
H         4.89407853621052   -0.24432000702332    4.01287258846415
H         5.78534295130538   -0.09021796022473    1.05190720666574
H         4.87919049671203    2.03357794156172    0.82314715924486
H         4.29756652686453    2.08070972389737    2.46714207741330
H         2.40611346446512    1.42609695344822    0.98021081047527
H         2.77587415151134    0.59048486575260    3.17221351707196
H         0.60987921054794   -0.14211083523160    1.62820769039866
H         1.05924817784764   -1.24315539256131    2.91295362910549
H         6.76545996222106    1.06140887286760    3.48987089556679
