36
 energy: -51.084917112383 gnorm: 0.127419127656 xtb: 6.4.1 (79825abcba525fcdf90b791dcacef51065a7a4e7)
C         2.83830107436928    0.04158199156296   -1.43674514185732
C         3.37400564558006   -0.41671762692107   -0.06640168451208
C         2.79737184376888   -1.79261360841387    0.31312519030269
C         3.36924665718594   -2.20004972255980    1.66854221673604
C         3.56104514559857   -1.09416327752321    2.70897162859020
C         4.97532732629382   -0.53203566925851    2.92797292307959
C         5.49660883914105    0.43491598687339    1.84603850817466
C         4.38130981573439    1.37114964002478    1.33752198417581
C         3.08143828129701    0.58773728392206    1.07545946247127
C         2.57629679051602    0.03524949748184    2.41130821676700
N         1.21491195198014   -0.46621719350426    2.57085323127788
N         6.56799725549024    1.26513640478183    2.39770966292666
C         7.49955137656716    1.92072771190818    1.66263990726545
N         7.57414047821849    1.80136576902199    0.33119834706601
S         8.79475754977745    2.79300047647102   -0.23112383289744
N         9.10110871193972    3.37779484247489    1.30260846595424
N         8.32946552879230    2.87750010348596    2.25040239339917
H         1.99330678134620   -0.47785911079936   -1.90204978775315
H         3.58328749942007   -0.07371163779593   -2.23228492026582
H         2.52209377740910    1.08308204625556   -1.33378862667620
H         4.46646607831859   -0.51033671769921   -0.14124752068310
H         3.14265890430592   -2.48159943945705   -0.46945814677385
H         1.70882339591710   -1.76481618590512    0.16184217238563
H         4.24606673288483   -2.83795939144629    1.49366964600269
H         2.55571106939344   -2.77391257916381    2.13511897439562
H         3.30411298321105   -1.48688701104033    3.70617307833473
H         5.64534008534398   -1.38262836573460    3.10990907103963
H         4.87982820307854    0.01745857267254    3.87657656772165
H         5.96703317983322   -0.08102103201486    1.00028580716815
H         4.75270407769380    1.84797640350590    0.41955521253372
H         4.24228326203146    2.17020144578375    2.08313137743661
H         2.30858094241245    1.29526299988990    0.74165593899034
H         2.75179751061309    0.75247511543412    3.22348092578699
H         1.07591615114246   -1.34125430502074    2.06325445145586
H         0.56199932118933    0.23363334080574    2.21686333841925
H         6.84437255292449    0.99653339996562    3.34020242368330
