36
 energy: -51.091007898040 gnorm: 0.127492741497 xtb: 6.4.1 (79825abcba525fcdf90b791dcacef51065a7a4e7)
C         1.52338386279498    0.37597995627950   -0.89920488206949
C         2.85560372266328    0.07729319758150   -0.18447726450175
C         3.15910944640528   -1.43175886641207   -0.16765296173377
C         4.25607630312628   -1.75050290604956    0.84490135353707
C         4.02801250758275   -1.19337493726648    2.25197639304662
C         5.14877344908747   -0.23738809352948    2.69257504946735
C         5.20990097359241    0.90231483838505    1.65592049272395
C         3.83579705663558    1.58433520655785    1.49560501988187
C         2.68481338336681    0.58657094422442    1.26805122650578
C         2.70348110098712   -0.44632490612249    2.39839640245288
N         1.58234029583929   -1.37459531589697    2.29046376905790
N         6.14444010100513    1.89609014668030    2.18556888494670
C         7.41123540394701    2.09577421484221    1.74593660085489
N         7.86069614399423    1.36773323963136    0.71613621234454
S         9.41779966706549    1.84490944353377    0.34575376732303
N         9.43203817327834    2.94560871631389    1.60131285690087
N         8.29203564493708    3.04958557450312    2.25981449687751
H         0.69129139067361    0.26070729257223   -0.19587199076262
H         1.34072601210030   -0.30552028040857   -1.73787911259896
H         1.58157483203637    1.41044796760648   -1.24820230850158
H         3.64419488092725    0.69226457871989   -0.64029565086741
H         3.51120972464182   -1.72709117218537   -1.16523279413309
H         2.30508325973407   -2.03717533910708    0.16806586703777
H         5.16647399892095   -1.34954547282750    0.37935675559026
H         4.32412143749567   -2.84439241862497    0.93224083547769
H         4.11157028272763   -2.03371493195654    2.96014556567026
H         6.09502118297878   -0.79194845456330    2.64154728547543
H         4.99944057363973    0.15705827779521    3.70895323933849
H         5.74157795118739    0.53057337314890    0.77166058693110
H         3.76736341364037    2.24685371673766    0.62133589544270
H         3.53516492646878    2.21434501221673    2.34792743369939
H         1.69749737802497    1.06752584273134    1.32475548562903
H         2.70650606279129    0.08851523426897    3.35692363407291
H         0.70014605592376   -0.86118638755315    2.26198760990506
H         1.48118575532105   -1.90448342733957    3.15670903560646
H         5.72917585047735    2.74483421378289    2.56505881248137
