36
 energy: -51.093753410302 gnorm: 0.123179038135 xtb: 6.4.1 (79825abcba525fcdf90b791dcacef51065a7a4e7)
C         1.82604040943786    0.22471138704877   -0.98021008574068
C         3.08649807778197    0.11212468983276   -0.10076151304608
C         3.38880828234934   -1.39443035986181   -0.00836393549018
C         4.39922174750855   -1.77587136739914    1.07041669927954
C         3.93236876162516   -1.14677364652445    2.38515969930817
C         5.02316507886123   -0.23204707478081    2.96617757759912
C         5.19122945222721    0.91686605015525    1.95174916910246
C         3.84984378766020    1.67012129750052    1.84081937723880
C         2.75014597084123    0.75770369072608    1.26615734177030
C         2.60741343299280   -0.39617151822495    2.26270234499938
N         1.52521291891939   -1.26854561016082    1.81762078836700
N         6.24285828303651    1.83199977427879    2.39681906092378
C         7.29464537933581    2.16596358509240    1.60933402516690
N         7.51181981323308    1.53377799516296    0.44928053646026
S         9.08925424602977    1.87904597362911    0.02273358393412
N         9.42786935645582    2.79561747028262    1.37676709531744
N         8.39444760976470    2.79235199135187    2.19900197076733
H         1.13196529544762   -0.47300242485953   -0.49875603932475
H         2.17319151037251   -0.02398629526778   -1.98957449164680
H         1.40980705473129    1.23539319907578   -1.00432488336949
H         3.95826122353729    0.58306826337538   -0.57623745359438
H         3.88934797107706   -1.63279939064320   -0.95652084226221
H         2.41215686937032   -1.88624468142920    0.10507171170713
H         5.40888662098780   -1.47595676444869    0.75904768549919
H         4.49606851092000   -2.86238396783604    1.20812527828780
H         3.73791608883219   -1.97279013561528    3.08839628182382
H         6.00637520275922   -0.69014709044168    3.13637749778881
H         4.72874431451078    0.20750667985113    3.93107227267243
H         5.58244753751212    0.52865616891354    1.00357767068734
H         3.91887566853206    2.57094079627697    1.21494458356287
H         3.59619337271595    2.01427373399308    2.85618437939557
H         1.82336563898937    1.33529377513242    1.13656656277128
H         2.46825979558753    0.03084815586878    3.26426513956552
H         0.65973115795944   -0.72678488634488    1.82776649646871
H         1.36856971149621   -2.11242110162034    2.36964575949783
H         6.12488474417999    2.31382002252884    3.28606310536273
