32
 energy: -49.228888167499 gnorm: 0.281821138574 xtb: 6.4.1 (79825abcba525fcdf90b791dcacef51065a7a4e7)
C         2.40205842659052    0.75181009516778    2.00372721475184
C         3.48311080501450    0.66279207193028    0.89439506498371
C         3.62726239356131    2.10288130970157    0.30252466995624
C         4.36879007265592    2.31502829790038   -1.08111398482991
C         4.40094270739677    0.71225641333297   -1.40685365923231
O         2.95747399865954    0.43764803096297   -1.39640618973271
C         3.02623534941634   -0.33125945629518   -0.16399965983823
C         4.05216305067259   -1.37966877689316   -0.65680049682017
C         4.76472712461266   -0.85389017165615   -1.93981542307453
C         4.03058788877318   -1.14304654153247   -3.23897607916275
N         3.33172414753331   -1.30426255715694   -4.27610625683166
C         6.16954447522514   -1.28270890495444   -2.04358948880857
C         6.95537257961755   -2.01229599535058   -2.91606152426455
N         6.57018129899674   -2.53083187017669   -4.09501396482456
N         8.25241048930874   -2.15505089641681   -2.56706151341822
C         8.50680694715560   -1.56305990266538   -1.42357574762525
S         7.16216797959038   -0.75968265868462   -0.72848816588572
H         2.74503611937147    1.31521139432175    2.88066695890206
H         2.08001421760668   -0.25136825556172    2.31136515754200
H         1.50991898263245    1.27624566581405    1.63460449775389
H         4.37067122166585    0.24989399335314    1.37388300874196
H         4.08243211847585    2.74679653586235    1.06129354905502
H         2.57165727592807    2.40360165941842    0.17321345393885
H         5.37396233720310    2.70765593017412   -0.88312291418285
H         3.66206923443380    2.91957100347925   -1.67215401618793
H         4.95433897328010    0.43504550051491   -0.48765728380229
H         2.06196819031894   -0.81769829668418    0.03507369228905
H         3.42449801845287   -2.26005462656056   -0.82735310207140
H         4.73355287645563   -1.59488639011550    0.17577196546039
H         5.57193163651840   -2.70287260991262   -4.17972766309258
H         7.12946673937034   -3.31513891951012   -4.41803762541013
H         9.45969877033425   -1.57910127004366   -0.91158824253797
