32
 energy: -49.233045453805 gnorm: 0.276407195438 xtb: 6.4.1 (79825abcba525fcdf90b791dcacef51065a7a4e7)
C         2.41237406616965    1.24802246336013    1.93055534794445
C         3.40759768664666    0.89901313566825    0.79260161285081
C         3.51532102856405    2.21386765964883   -0.04674367779840
C         4.31902005904524    2.13587979783849   -1.40957577637541
C         4.34579979256249    0.50170550413947   -1.47867769420309
O         2.90834011321852    0.22865127710198   -1.34350414935072
C         3.02176998570460   -0.33653749763092   -0.00841313618086
C         4.04153282198706   -1.45780546405464   -0.32047773825594
C         4.71476992288699   -1.13796896881840   -1.68970175569933
C         3.97411150032121   -1.65932735185333   -2.91035763498791
N         3.44328771376018   -1.92480283433202   -4.02291730335581
C         6.14470856764336   -1.44957281685336   -1.85201276440060
C         6.96318414531832   -1.41824744785924   -2.96563165916953
N         6.58940509582758   -1.06480028232830   -4.20762399547276
N         8.29106099433963   -1.58663302914702   -2.78431237808535
C         8.56316329966716   -1.79796494041034   -1.51780941676129
S         7.17721131755721   -1.79769934402162   -0.50996382935959
H         2.73549827716297    2.17027837638863    2.42966737070822
H         2.33127591479120    0.51196463523351    2.74071727152673
H         1.39715192883204    1.22915025307809    1.51083533834953
H         4.40398628716658    0.78513247058893    1.21968234793741
H         3.93979795608412    3.01277522442661    0.56896936305631
H         2.47143352537818    2.45482078616539   -0.31821513900723
H         5.35145497668656    2.49860453167916   -1.33060036619487
H         3.81524914296321    2.69333583937803   -2.21562302671640
H         4.89598577199838    0.49748327011088   -0.51675625556189
H         2.11497604176711   -0.84962210912928    0.33876552473971
H         3.53901414935493   -2.42179659888780   -0.44825451435362
H         4.85014671410995   -1.55862404328902    0.41421050089606
H         5.65524650833973   -1.35883504393540   -4.47996222145908
H         7.30523446712886   -1.22377759752937   -4.91089959025270
H         9.50111090881169   -1.98817694924214   -1.01336414538181
