32
 energy: -49.226967162293 gnorm: 0.281880724689 xtb: 6.4.1 (79825abcba525fcdf90b791dcacef51065a7a4e7)
C         2.40894047327238    1.45408253948984    1.82319276220501
C         3.40313644190145    1.11302642303546    0.68193408393240
C         3.37577364601639    2.24737923849928   -0.39391080379915
C         4.15568438601583    2.09308908709670   -1.76404194959229
C         4.33230657167428    0.48529556620341   -1.51945569139399
O         2.92110722257607    0.13329335382662   -1.31033451393651
C         3.10261042878722   -0.25241971574263    0.08000886631377
C         4.15345017071653   -1.37610526998668   -0.08615076379692
C         4.78879917243022   -1.14565693782779   -1.49097929231183
C         4.05452247404749   -1.79515812939395   -2.65260581411349
N         3.71457168632453   -2.19316413684646   -3.79980449965381
C         6.22053333823019   -1.45315550191925   -1.64508396428878
C         6.98639104873225   -0.95135627376864   -2.68079149681219
N         6.65562404730788   -0.01341833758310   -3.58525059043598
N         8.21088809084364   -1.51495598112441   -2.76710300985182
C         8.43188479175013   -2.43764037225411   -1.86016058422597
S         7.15096028836279   -2.58832619883722   -0.73182468816706
H         2.71293711584293    2.42795488479072    2.22721842069571
H         2.61037836322705    0.68327537712993    2.57817585778258
H         1.36643060935458    1.40202937105533    1.48017572740928
H         4.36705559930325    1.22524005420124    1.17834617252893
H         3.70591309361012    3.21206740069133    0.00348220466084
H         2.30953039574129    2.23569586456595   -0.68450521807094
H         5.11222960260974    2.61031464071784   -1.90973744453643
H         3.48808756833792    2.29746861369411   -2.61656646280540
H         4.84359161198733    0.74665064756887   -0.57167068510944
H         2.12884460795216   -0.67146779813498    0.36678914374771
H         3.62987782830899   -2.33640677411114   -0.12885733410300
H         4.95627238036428   -1.39498264860542    0.66145057570311
H         5.65371624466085   -0.04505049415973   -3.75394255789839
H         7.32050391445445   -0.00093064275323   -4.35340477919816
H         9.38845902143549   -2.93437640471297   -1.76736826237549
