32
 energy: -49.232401316234 gnorm: 0.278573031242 xtb: 6.4.1 (79825abcba525fcdf90b791dcacef51065a7a4e7)
C         2.45938938739593    1.28973281329819    1.85030392037268
C         3.52317656776562    0.95628790167805    0.77123599068546
C         3.75857153981065    2.20402412504319   -0.14128293037061
C         4.36819194172118    2.10945192223259   -1.60030473784541
C         4.36394235502498    0.47410069461834   -1.55997908016213
O         2.91745406824428    0.31655573955586   -1.35510827014148
C         3.07325882865421   -0.25827931206601   -0.02843489595635
C         4.04090761507989   -1.42632328245939   -0.33481950510839
C         4.68571817699474   -1.17994266689516   -1.73261560649952
C         3.90656402886768   -1.86134554846127   -2.84571899899467
N         3.36111635192717   -2.48962603262675   -3.79323712726296
C         6.12139466354162   -1.49663769663039   -1.81449146033908
C         6.95144513829163   -1.14565084529468   -2.86275433361136
N         6.57485769116739   -0.58976180075559   -4.02737869765072
N         8.27301735170085   -1.30852812429896   -2.63602719000605
C         8.45654564623073   -1.93069407817077   -1.49499367317235
S         7.05708110605461   -2.20345477260909   -0.54435372921433
H         2.71825443864882    2.16006087523775    2.46641753498650
H         2.31369919831004    0.41057279993567    2.49106317270340
H         1.47888723597388    1.48456636651395    1.39439553832922
H         4.44260443556651    0.72114832556161    1.30744376792192
H         4.29820673128336    2.94400047100068    0.45768733278008
H         2.76490559378333    2.65205312143480   -0.32391449926786
H         5.35238443753058    2.55222993652099   -1.79789260661416
H         3.62595727253979    2.46431115126800   -2.33339216469638
H         5.05272300817216    0.47253429094939   -0.69188113009084
H         2.14451027017168   -0.73633944054722    0.31060599979017
H         3.41017591725089   -2.30535164987522   -0.50100461453097
H         4.75818531711714   -1.51756711525349    0.49039251747311
H         5.67883407211784   -0.13892537830825   -4.19219680206689
H         7.30090228031896   -0.40403101682186   -4.71341467819384
H         9.43770007947010   -2.04593816583220   -1.05403320032180
