32
 energy: -49.229148266458 gnorm: 0.279609581468 xtb: 6.4.1 (79825abcba525fcdf90b791dcacef51065a7a4e7)
C         2.27255199865959    0.79897851755866    1.94575315152529
C         3.39967776552314    0.62823121747197    0.89330403861202
C         3.67469556848397    2.08965586967152    0.41003346427259
C         4.39998838925967    2.29007368453320   -0.98392083467572
C         4.46269943862079    0.72002474135286   -1.43892796506743
O         3.01227354701978    0.48752729239807   -1.40245196624981
C         3.02378455906523   -0.34813041202919   -0.21236104567709
C         4.00948893826850   -1.42734047154529   -0.72052926694480
C         4.81245330409531   -0.86245417916010   -1.93150809188248
C         4.04915693296245   -1.12752542969768   -3.21894978865855
N         3.37367794938907   -1.49404160662462   -4.21866683650077
C         6.23298978635195   -1.24648824510341   -1.98404665098786
C         6.92031742045976   -2.03837827307655   -2.88489153412341
N         6.38990800021811   -2.57586336763559   -3.99707688548757
N         8.22857625784971   -2.16948775606563   -2.57544617118839
C         8.52061468047419   -1.56273292982225   -1.44881724640962
S         7.25437710310134   -0.67316219938500   -0.71266372231007
H         2.59089220415092    1.47080156629113    2.75284133815850
H         1.98817322398780   -0.17645825534015    2.36093045582314
H         1.35714626270204    1.20963366418762    1.49787847692559
H         4.23538113676141    0.19168161551072    1.44027874027459
H         4.10983915386078    2.66526889510133    1.23274617939138
H         2.67637476555171    2.55449873957693    0.31658313963202
H         5.42265915343411    2.67840133298814   -0.89981167511280
H         3.71180182544127    2.85039830460095   -1.63713605375236
H         5.06100865992393    0.53920794186628   -0.52386148852326
H         2.05036942099532   -0.85241036140421   -0.14733181502115
H         3.44876044313385   -2.31952784495712   -1.01669826688453
H         4.81592512651900   -1.79243239061145   -0.07233470357938
H         5.38952050835981   -2.54601986954519   -4.17487183572433
H         6.94696903698204   -3.17067294143388   -4.60384422517699
H         9.56342281308138   -1.59481282763416   -1.16261200796848
