32
 energy: -49.236532472157 gnorm: 0.279929502202 xtb: 6.4.1 (79825abcba525fcdf90b791dcacef51065a7a4e7)
C         2.08726780920422    0.74965343998396    1.88308126714401
C         3.27236332470056    0.67916695906687    0.88418360195002
C         3.55267739959315    2.12749232110025    0.36579675766894
C         4.44127565670072    2.32764512370699   -0.93021927621252
C         4.54008134562219    0.73472182768703   -1.28917701297113
O         3.08266525617455    0.56214501905916   -1.36181598112514
C         3.00150255157852   -0.33381334471995   -0.21925573003403
C         4.04527061168195   -1.40446651123007   -0.61774343365565
C         4.85748635508275   -0.84110275786238   -1.82324949730831
C         4.06288599776999   -1.04207836580518   -3.10333126212707
N         3.57317336978267   -1.23524593324486   -4.24915322794465
C         6.26103383474995   -1.25587017814776   -1.98507909527270
C         6.83603982358829   -2.07154033597473   -2.94167770628332
N         6.23749982642101   -2.77101228804516   -3.92130492989564
N         8.15015858245425   -2.28223212552101   -2.71105208875990
C         8.58592614639428   -1.66739962426921   -1.63642740109063
S         7.40636148531902   -0.75669631065993   -0.79034089106874
H         2.33538230966434    1.36144284778078    2.75956911726444
H         1.90843273478023   -0.26703716124257    2.25601372373847
H         1.19837482169608    1.22902449751216    1.45033459641292
H         4.07966047050675    0.31089742908590    1.51727591415342
H         3.99364013888613    2.75805361517787    1.14392324155143
H         2.57467218123322    2.57797784073551    0.11674882634744
H         5.43060698271078    2.75213987018674   -0.71866327295490
H         3.90368229734659    2.92428202141472   -1.68472066070907
H         4.98032377518406    0.45332729211836   -0.31192627228889
H         2.00990828492678   -0.79789812743982   -0.13305698594557
H         3.56392853460717   -2.37710383637070   -0.76063242519690
H         4.79726504226576   -1.62606968720844    0.14983980872081
H         5.32676965451036   -2.48164373877448   -4.26787845806123
H         6.96225169582009   -3.10947776845057   -4.54776952238065
H         9.61761418282363   -1.72298842268190   -1.31561430877476
