32
 energy: -49.228460822426 gnorm: 0.281947132114 xtb: 6.4.1 (79825abcba525fcdf90b791dcacef51065a7a4e7)
C         2.42665847205734    0.67324396329489    2.03533270582997
C         3.45440746703295    0.58998425001776    0.87601562578609
C         3.85382645054194    2.03808899585211    0.44195989992194
C         4.51244540259432    2.25833781894976   -0.98178063072870
C         4.41462603033736    0.69008829742101   -1.43680004780497
O         2.94993055674596    0.58271472984510   -1.38927199587663
C         2.89886967353726   -0.29498550354292   -0.23090772425648
C         3.75859152296226   -1.45478131277128   -0.78794850058850
C         4.66225905831598   -0.90969456779412   -1.93537318354176
C         4.10843770973630   -1.06293356581197   -3.34256541011113
N         3.81340053887893   -1.23029910835295   -4.55705377253051
C         6.08902596490945   -1.27356316345703   -1.92526384052430
C         6.77727913308297   -2.16406690139930   -2.72797254595279
N         6.26434383829962   -3.00332286139012   -3.64433898561109
N         8.08563689660970   -2.23204976745745   -2.39923920850036
C         8.53231375071537   -1.34488355670735   -1.54124941196403
S         7.21825218053329   -0.43966847707616   -0.91639459385665
H         2.61560149533235    1.45911942189475    2.77747712117757
H         2.49149285171974   -0.25659948132954    2.61490845669015
H         1.41545206170711    0.81822128948110    1.63080803991333
H         4.36154495996362    0.15696583158808    1.29762399960884
H         4.51916757511029    2.40109841359337    1.23131524322221
H         2.94196169392224    2.66021778164452    0.38797173801752
H         5.55471471900371    2.58733751470443   -0.88606188040296
H         3.93949347014801    2.86168563349890   -1.70424312124863
H         4.98864184173436    0.37370265352987   -0.54325582857881
H         1.83234821803773   -0.53161961634185   -0.11865632931572
H         3.13041684472404   -2.26375323247144   -1.17407261353179
H         4.38026532453586   -1.95882595418232   -0.03744979984001
H         5.57534318755467   -2.59666945210247   -4.27138597238685
H         6.95812284409290   -3.66824608049685   -3.97423266637990
H         9.47288209081582   -1.28749684841440   -1.00980861661986
