32
 energy: -49.229178644599 gnorm: 0.280855424074 xtb: 6.4.1 (79825abcba525fcdf90b791dcacef51065a7a4e7)
C         2.23252964919651    1.20292131815420    1.77657535343877
C         3.39534854530336    1.02400868296572    0.76511168302924
C         3.45982302349543    2.25843270302437   -0.19248303260386
C         4.06813988771529    2.18052675956999   -1.65303321342050
C         4.35360617958743    0.57814155778607   -1.48905602816277
O         2.95461957805608    0.17172940493166   -1.29725800535780
C         3.15242738830699   -0.30431471152045    0.06253123266826
C         4.32033788425270   -1.30653214921175   -0.09898565168190
C         4.85543853276302   -1.03892868359106   -1.53855978662390
C         3.98042324652106   -1.54192038758734   -2.67510625427879
N         3.50488904221686   -1.91116938342937   -3.78306047742334
C         6.24243067599643   -1.44670414517508   -1.81809214484013
C         7.03869003050683   -1.18876556980733   -2.91830545776167
N         6.74915699194536   -0.54022433056688   -4.05968423836694
N         8.27861149380746   -1.72092163489450   -2.85591951913499
C         8.43197243737647   -2.33689569938926   -1.70709970372985
S         7.13643740856176   -2.26814901946104   -0.58751112668443
H         2.33881725665477    2.12822624764654    2.35674064770519
H         2.17618031642356    0.41302714047689    2.53658345906490
H         1.23195688881039    1.20967784466060    1.32269702622462
H         4.31919638212295    1.10281780721186    1.33821839333292
H         3.93002151308365    3.02698896825221    0.42862175511134
H         2.44566475900238    2.66816083581746   -0.35079334759535
H         4.93505424654395    2.84632396857249   -1.74738242668985
H         3.31891039863577    2.46929388688506   -2.40770086654283
H         4.92928299131520    0.65994151757648   -0.54570017459046
H         2.26122932469058   -0.87778915884386    0.35055409675620
H         3.96329993414778   -2.33920457976745   -0.03385205713832
H         5.07076603567822   -1.13644682836430    0.68313722556729
H         5.77270785636062   -0.48856256886442   -4.33745206139467
H         7.37324805450767   -0.79009948052059   -4.82149444690475
H         9.32772101845039   -2.87277242875441   -1.42273731092162
