32
 energy: -49.224529679598 gnorm: 0.285761402109 xtb: 6.4.1 (79825abcba525fcdf90b791dcacef51065a7a4e7)
C         2.31476308412677    1.37007180620223    1.73585832026608
C         3.45018890162757    0.98959161217376    0.74931926614009
C         3.54897136930296    2.22733359402699   -0.20104070042543
C         4.26278652945999    2.10851304754813   -1.61018056780972
C         4.30970049135698    0.47923507566149   -1.47136333422349
O         2.90075723531950    0.09643814828689   -1.30563392145529
C         3.12655348784996   -0.33142345716237    0.06576069746387
C         4.13505808093986   -1.46000956002543   -0.25634845906048
C         4.79415386443125   -1.13596748227647   -1.63145117665794
C         4.05033658798591   -1.86573666141554   -2.73805094269229
N         3.52747566564711   -2.38150836244273   -3.76305638014849
C         6.25380534884389   -1.30676318999127   -1.72317217487163
C         6.97406393364659   -1.05968795627125   -2.87695379030213
N         6.59836715584720   -0.14829576365860   -3.79095425570529
N         8.19529116932574   -1.63682097236547   -2.87398024284419
C         8.40479437197352   -2.31514873416065   -1.77002804741411
S         7.18164233824584   -2.20602606239121   -0.57478453936204
H         2.71228234571883    2.14906127397881    2.39860403486458
H         2.08353971072456    0.47965088555130    2.33452911066074
H         1.43657482438160    1.78240361957624    1.22014047965031
H         4.34676485243074    1.01617216751476    1.36867541693600
H         4.02554302088660    3.08916234943101    0.27610410552333
H         2.52511697661743    2.47897316735372   -0.53248600699457
H         5.25033829640010    2.58411193869643   -1.65788179384755
H         3.67646517823422    2.43534767857407   -2.48405753074857
H         4.87031396126581    0.63908611026535   -0.52893271402177
H         2.20435620455083   -0.78846522860974    0.44881302869212
H         3.61396849018934   -2.41975771587955   -0.33037511291755
H         4.91123676060769   -1.48162700446217    0.51880763221682
H         5.61034835565794    0.08717049568688   -3.83159054809828
H         7.13999146392917   -0.24699731434470   -4.64487647265322
H         9.29869510109678   -2.86056614088914   -1.49826951828107
