32
 energy: -49.224225394786 gnorm: 0.288066757760 xtb: 6.4.1 (79825abcba525fcdf90b791dcacef51065a7a4e7)
C         2.36844017038393    1.27440799460447    1.94705396443395
C         3.34818196634967    1.03079219308831    0.76893104060765
C         3.31249825125554    2.24196242067217   -0.21937084003105
C         4.23334193505555    2.17165921680324   -1.50639451443160
C         4.39283717872855    0.54476347064153   -1.44483679070947
O         2.97135222081805    0.19786531690562   -1.31006655284437
C         3.04699097753613   -0.28239352887003    0.06048184844211
C         4.11673036723632   -1.38337739610936   -0.13454268984340
C         4.80178776641243   -1.09788154823137   -1.50549362348349
C         4.05677274218704   -1.61205050549933   -2.72654774278479
N         3.54199933050343   -1.88381355293699   -3.84511527930469
C         6.21083528674247   -1.43274615135649   -1.77123247244238
C         6.92095257074327   -1.29432146219667   -2.94919793714586
N         6.58931921962332   -0.87243152228290   -4.18175983355111
N         8.22500530638502   -1.64155619889516   -2.89121675959913
C         8.58432257830112   -2.03284059633748   -1.69100085788426
S         7.27537523972759   -2.10632753789680   -0.58742837267089
H         2.49468274649679    2.24488760470462    2.44335042252965
H         2.32656556759443    0.43534099522241    2.65340619051458
H         1.42879748608750    1.26218093481238    1.37773932353520
H         4.33658352422260    0.97074199117774    1.22457710579302
H         3.45074697165638    3.20556421758573    0.28052452497846
H         2.24049259599753    2.22771377260627   -0.48780543918161
H         5.20660776501396    2.64124767417225   -1.31674085107509
H         3.80582151167730    2.47636861256355   -2.47522526444299
H         4.85824494247132    0.54672711369791   -0.43914943710338
H         2.03985833260546   -0.67374109473757    0.25693798693089
H         3.62730580730462   -2.36215043568731   -0.15899186856452
H         4.91523003370968   -1.49401017703534    0.60973299125693
H         5.60998461944483   -0.96583452365436   -4.43760438462402
H         7.33166196376250   -0.85956385116977   -4.87533297762702
H         9.57105142386182   -2.39218580361806   -1.43094593027856
