32
 energy: -49.230422228514 gnorm: 0.280912051112 xtb: 6.4.1 (79825abcba525fcdf90b791dcacef51065a7a4e7)
C         2.17578478080868    1.21707852568616    1.78548915621293
C         3.31477336338872    0.93776800809613    0.76966096623656
C         3.53586117677980    2.23540868831189   -0.07425614851208
C         4.25115835835495    2.12617579100568   -1.48342032705223
C         4.47478379898904    0.50602953467555   -1.44972120536524
O         3.03249113034266    0.22587115114890   -1.42913059097022
C         3.04829807273715   -0.30103086548681   -0.07380881919219
C         4.11558394843200   -1.40604791349007   -0.25922885696421
C         4.84317756769348   -1.13932118964799   -1.61192333833204
C         3.96613707242176   -1.62346262112975   -2.75507567855915
N         3.32766268704994   -2.14514016918682   -3.70914230594736
C         6.29737082913457   -1.32228643833809   -1.75338717761119
C         6.97943807308718   -1.29888481092089   -2.95557985334448
N         6.52059452128569   -0.73864553186138   -4.08817650669542
N         8.27131945548614   -1.68796784661394   -2.89120443012317
C         8.55614589912938   -2.06664704873704   -1.66719194992514
S         7.29901496662296   -1.97740737143349   -0.50604002337603
H         2.47640700138583    2.10889585190784    2.34972862067244
H         2.07615302235229    0.45714297973311    2.57116838942737
H         1.21061031295570    1.30087997619722    1.26721066144113
H         4.22633092767636    0.75786620663894    1.33962162453156
H         4.12808003450542    3.00051522507669    0.43704153327607
H         2.55325260571357    2.72197929246840   -0.21276869382059
H         5.18319058309044    2.70500089725669   -1.48579396556792
H         3.57120073144155    2.47669019006861   -2.27654820468536
H         5.11616160568801    0.60908476205597   -0.55192979228214
H         2.06328249351536   -0.69549827288584    0.20939405682112
H         3.60485027667401   -2.37232628933705   -0.31912913502654
H         4.84284981883104   -1.41554959774146    0.56222210799606
H         5.52372264583299   -0.70762218917488   -4.28454561987227
H         7.08326372569220   -0.89268645272678   -4.92001591247299
H         9.48433834978618   -2.53713993612978   -1.37141065160754
