32
 energy: -49.227024450456 gnorm: 0.280686545410 xtb: 6.4.1 (79825abcba525fcdf90b791dcacef51065a7a4e7)
C         2.49271923112908    0.89798882710031    2.01527757189488
C         3.48420912554717    0.72952371256750    0.83384472822976
C         3.73500993681848    2.13427834927147    0.19453993521672
C         4.45574126968485    2.16093243312004   -1.21583642340973
C         4.39830836924128    0.54628470756550   -1.47202393698293
O         2.93711508016941    0.40282192432746   -1.41325804998191
C         2.96554296863350   -0.31228472420198   -0.14732478309562
C         3.88411534801511   -1.48578902043558   -0.56404394370738
C         4.67664899704769   -1.08251470233942   -1.84450410550192
C         3.92959453232172   -1.49348581937530   -3.10283736535302
N         3.34158502541711   -1.73438502171694   -4.19198957101674
C         6.13574702204625   -1.25871982818125   -1.93478729034993
C         6.94468906395627   -1.67265400482840   -2.97656550608046
N         6.63001165067279   -2.08726608211803   -4.21602328160112
N         8.25984439720213   -1.73872023559735   -2.67575158946915
C         8.48194685882260   -1.47501236206992   -1.40931594356470
S         7.07907619881557   -1.11515888076747   -0.49330552907299
H         2.85174325124402    1.65606201235010    2.72274123527894
H         2.31526381550447    0.03949514849395    2.67574601034746
H         1.59212757738889    1.33004440328718    1.55760991129834
H         4.41852006498986    0.42846766729293    1.30774907455718
H         4.29967671187816    2.76689906079895    0.88626168284571
H         2.78940618677783    2.66445496158975   -0.02040794310626
H         5.44457397128221    2.62253804872135   -1.10244177056789
H         3.82940120456606    2.66620518397562   -1.96859941495660
H         4.93058852604490    0.27056516497800   -0.53999825890162
H         1.97056825330448   -0.54037309249120    0.25772472959528
H         3.31070400710616   -2.38315260964103   -0.81716219735734
H         4.57332883023297   -1.83005897363931    0.21714143364041
H         5.69167416070450   -1.93153271934038   -4.57455735997777
H         7.38791094865199   -2.19188288436610   -4.88454853262786
H         9.41370771396636   -1.67924085591294   -0.89892022545971
