32
 energy: -49.231334399767 gnorm: 0.287599657495 xtb: 6.4.1 (79825abcba525fcdf90b791dcacef51065a7a4e7)
C         2.38400898077502    1.24547703679709    1.87865033889335
C         3.41299827476424    0.90109724854634    0.76968691961461
C         3.59972044703967    2.17537833188219   -0.11704292038713
C         4.26914251145786    2.14381177464352   -1.55238372517818
C         4.34372786631133    0.51068274536166   -1.49455238038481
O         2.89512171399089    0.28335894395849   -1.39976348879153
C         2.96999803308521   -0.29150776326629   -0.06608642661830
C         3.98754085757505   -1.43588782972001   -0.28866961884582
C         4.76791687765051   -1.12568494076616   -1.60210230635699
C         3.98251685359758   -1.53605286760808   -2.83706596152300
N         3.41484044524767   -1.91413715263801   -3.89764878259730
C         6.19254341899768   -1.44675056241943   -1.79057628050083
C         6.98089495098476   -1.38702425720705   -2.92458034802923
N         6.62393144850615   -0.96306249929334   -4.14933098406861
N         8.28676335306415   -1.69996802276059   -2.77876804505017
C         8.54645857097877   -2.04513420995791   -1.53935314722506
S         7.23165408111921   -1.82649716794758   -0.46227251282612
H         2.73399905208602    2.18374407195210    2.32724810682085
H         2.45099846355647    0.49318229426217    2.67507071107295
H         1.38638428533587    1.34848071871771    1.42994972176988
H         4.29545254824280    0.63571361915160    1.35192655154257
H         4.22046392858515    2.89992373643095    0.41891229846525
H         2.58362781063209    2.60034229741234   -0.20879076167066
H         5.30907638782694    2.49339997550685   -1.55972090646893
H         3.65902819411676    2.57353510210267   -2.36315677074324
H         4.90107454518861    0.48444054688234   -0.53711239744267
H         2.01427351304042   -0.68169953577586    0.30862028617741
H         3.46245213223050   -2.38571750796851   -0.43092376137632
H         4.65287233662069   -1.52470182195421    0.57922076390314
H         5.64296206628914   -0.82559333710029   -4.37753727910937
H         7.09571870934670   -1.24619285212770   -5.00345978963225
H         9.46700609872859   -2.48279009576318   -1.17680531248823
