32
 energy: -49.207818741877 gnorm: 0.303542893885 xtb: 6.4.1 (79825abcba525fcdf90b791dcacef51065a7a4e7)
C         2.16832449680809    1.28189850773026    1.73312892612227
C         3.31564566583303    1.12826904596826    0.70004209805980
C         3.07839153178761    2.24126405105069   -0.37229173570271
C         3.99182166823787    2.23110357956303   -1.66645854094354
C         4.28109199402831    0.62706017251753   -1.52722756803775
O         2.97001976273760   -0.00552946493545   -1.32712565191548
C         3.23489269907253   -0.25958199092299    0.08002478245015
C         4.35806641766219   -1.29803686384595   -0.15371587726966
C         5.01289049708124   -0.90049505390062   -1.51146547021654
C         4.23316679628492   -1.74023256496175   -2.51009560089438
N         3.48218242117151   -2.44239721432903   -3.24018287684001
C         6.42858669536181   -1.26873830113932   -1.67989215431491
C         7.14672353478526   -1.03950589482213   -2.83866849258377
N         6.72847210217785   -0.09342057473523   -3.69725393091891
N         8.32158813000851   -1.69884458135746   -2.93589502822942
C         8.39310911370789   -2.57814229218236   -1.96406640117643
S         7.17240806950106   -2.53091094994961   -0.76228694565586
H         2.34663090682933    2.31472509663176    2.05801982806467
H         2.28185716115024    0.67902396341736    2.64327891229456
H         1.15301262883406    1.15578624634178    1.33258611538278
H         4.24628082850016    1.31133465785125    1.23722193719035
H         3.21383692238033    3.26507521191552   -0.01035008065910
H         2.02848390499599    2.13350309793235   -0.70022135525228
H         4.93905784160388    2.78095999520718   -1.60219535192539
H         3.50387754931444    2.45675671825575   -2.62835549218101
H         4.83222434966998    0.86140777198625   -0.59483836576287
H         2.31732249687911   -0.81228078724758    0.32220873123814
H         4.01595962158155   -2.33771839236643   -0.14122224307652
H         5.22197195920372   -1.27462470800612    0.52223287556826
H         5.97615005865785    0.53685408374088   -3.43259903588180
H         7.33444571652357    0.10723240096958   -4.48770721825013
H         9.29952117084914   -3.16037650213365   -1.86501152911870
