32
 energy: -49.230374926845 gnorm: 0.282405994926 xtb: 6.4.1 (79825abcba525fcdf90b791dcacef51065a7a4e7)
C         2.50699745610235    1.14045046301884    1.96657305235609
C         3.50447323547318    0.88843976368061    0.80521654125385
C         3.65028531503805    2.20506479286327   -0.02555696818855
C         4.22059358113932    2.15599770459997   -1.50260350432354
C         4.32060127950862    0.52320507656687   -1.50473335229759
O         2.88123304122950    0.25968316078708   -1.37095703110995
C         3.02690087967586   -0.28949657285155   -0.03231772167212
C         3.95965031912669   -1.46326573917297   -0.41544542335988
C         4.69674096043441   -1.11106782769260   -1.74321498017880
C         4.07301876495179   -1.69033934360447   -3.00250262301740
N         3.35174555749498   -2.10659587375347   -3.94935826081141
C         6.12899351044474   -1.42422817389623   -1.88014406758272
C         6.99490114883212   -1.39891792599611   -2.95745272116349
N         6.66591210866056   -1.14638553753621   -4.23619203499039
N         8.30859651267051   -1.59751748783611   -2.71403947099340
C         8.50405316552273   -1.87244912354381   -1.44559953042769
S         7.10740057069199   -1.66259621049810   -0.47506412186581
H         2.88520659017021    1.92645657923610    2.63232846709372
H         2.36919394480107    0.26558219740667    2.61490636877245
H         1.51730840090077    1.42615644260964    1.58436276734426
H         4.42989314412766    0.67728738751116    1.34109868239986
H         4.31127831613563    2.84060380101942    0.57169919937336
H         2.63713825554163    2.64020125277754   -0.10069404115536
H         5.26523391683939    2.49111965366691   -1.49043561447291
H         3.54519797598495    2.62713933200008   -2.23480626749421
H         4.94990037047251    0.51346592121188   -0.59264613350360
H         2.11684182834216   -0.75114641725217    0.37355915846601
H         3.31818066647120   -2.33782349753396   -0.56308090899923
H         4.63969035783728   -1.56455318452595    0.43958323981266
H         5.68413135448852   -1.05047225886333   -4.48151632021515
H         7.36359451077702   -1.24939980129015   -4.96756701328305
H         9.44204837334327   -2.01543994338127   -0.92587847783121
