32
 energy: -49.228417356517 gnorm: 0.273373315536 xtb: 6.4.1 (79825abcba525fcdf90b791dcacef51065a7a4e7)
C         2.07036273437740    1.31425661113622    1.65115267178085
C         3.31794760969692    1.04999785136317    0.76745840458076
C         3.47680305714281    2.28430818225881   -0.17921482840155
C         4.48844586596806    2.19921352602794   -1.39521782776818
C         4.54472412487109    0.56444990693260   -1.41518063648645
O         3.11462969642836    0.22692731405312   -1.40977150859570
C         3.07254530371670   -0.22440459840311   -0.02799688506671
C         4.14185596537616   -1.33511333056173   -0.16006972719571
C         4.85465487308371   -1.09713896760835   -1.52594084481898
C         4.06042126066523   -1.67877285029375   -2.68407954079214
N         3.35132029883960   -2.01447872761396   -3.67125608627869
C         6.26707570032282   -1.48488553505957   -1.67722322096380
C         6.86835261280698   -1.24599607025909   -2.89887313147771
N         6.38215665835482   -0.66901655925769   -4.01147763370657
N         8.15303025192232   -1.66139311659042   -2.93806469724954
C         8.54242572314961   -2.18956910687419   -1.80134490547009
S         7.34767570519418   -2.26328639604747   -0.57506848682986
H         2.14086366583903    2.26992873946773    2.18575386723150
H         1.90458865185725    0.43444832548737    2.28611464999450
H         1.23787563430852    1.40351902225753    0.93967921076015
H         4.22958160748659    0.97865738043121    1.36074669455489
H         3.69750501108485    3.13770875520725    0.46927157669502
H         2.46830345247896    2.40654458182865   -0.61446543790466
H         5.45305330984149    2.66777361418126   -1.16345905965004
H         4.01504490383725    2.57267864291837   -2.31753549731702
H         5.06543824941475    0.57648988608422   -0.43705634295755
H         2.14466652469651   -0.69085729557203    0.32911227404068
H         3.64111427668837   -2.30624079197666   -0.09449503486299
H         4.91148645697690   -1.26409603507485    0.61865555954359
H         5.38131280569278   -0.52370685229527   -4.11381768497553
H         6.95402667037130   -0.98671719555746   -4.78885337017646
H         9.55464999198489   -2.54134870868798   -1.65287099720002
