32
 energy: -49.227031913905 gnorm: 0.282836750129 xtb: 6.4.1 (79825abcba525fcdf90b791dcacef51065a7a4e7)
C         2.35375809506369    1.16796335063850    1.87479882693403
C         3.38153854245823    0.92772966102006    0.73762188482025
C         3.41157923135092    2.24541109766210   -0.10366311257731
C         4.19692801219047    2.20350571799383   -1.47872558488707
C         4.38775813028619    0.57885410485270   -1.48915953950891
O         2.97329389040662    0.18115393707139   -1.47346482231249
C         3.05341392695504   -0.29823406506299   -0.10286618503717
C         4.16624582516926   -1.36180466797148   -0.26086984868772
C         4.83524277981513   -1.04843770146486   -1.63366343183808
C         4.06672529610359   -1.56474042847090   -2.83915197347994
N         3.29214318076938   -1.99129137280609   -3.73810524531404
C         6.27468875803050   -1.33780050866777   -1.74515697772032
C         6.97314784998322   -1.25765988937732   -2.93543551141745
N         6.59488540184952   -0.75933747025728   -4.12529807907183
N         8.22944082736205   -1.73863351429993   -2.81345334328392
C         8.50972129079347   -2.20727772851289   -1.61990985620112
S         7.26811996195217   -1.94630119144530   -0.46798404050308
H         2.56880289780880    2.13659233923567    2.34340490008906
H         2.31858008015595    0.37743169839986    2.63541870150413
H         1.33868231806800    1.23047218447614    1.45897332512232
H         4.34512036624239    0.76383929722245    1.22012268529526
H         3.81760217149039    3.14114008552604    0.37628632358075
H         2.35282439192312    2.43957944755914   -0.35424867819387
H         5.20916330845146    2.62670631001850   -1.48175454532501
H         3.50577046559611    2.55515785427246   -2.26160269674128
H         5.01304710915350    0.54582039909866   -0.57486321833405
H         2.13760761885776   -0.79899894564696    0.23859748821644
H         3.66216440360817   -2.33138468464631   -0.32369773723912
H         4.91915913181762   -1.49239395949128    0.52643924585291
H         5.59302039325898   -0.80659502292587   -4.29055559373881
H         7.22730950923696   -1.15920987725931   -4.81262903895291
H         9.47331656861032   -2.61895123447367   -1.35083658749442
