32
 energy: -49.198482051765 gnorm: 0.277000502610 xtb: 6.4.1 (79825abcba525fcdf90b791dcacef51065a7a4e7)
C         3.06104684776133    1.11435597206297    2.13827364244238
C         3.52166779463112    0.81132625006366    0.68802621619195
C         3.43534585040888    2.11802669702754   -0.16639154991062
C         4.37449794504068    1.97642419898754   -1.43417214765625
C         4.23476264105608    0.35428946862008   -1.59282530913108
O         2.79347257244535    0.15653050396981   -1.38619725362334
C         2.97587905759419   -0.39987331465754   -0.05506414065208
C         3.95931384213880   -1.54367175426278   -0.40020695531204
C         4.59706945699988   -1.28742794211630   -1.79946564180938
C         4.01706390520606   -1.84446275980856   -3.08930904773056
N         3.49251213810698   -1.72104273050523   -4.22933233100807
C         6.06568988895803   -1.38702740745984   -1.83688680857082
C         6.92469478761226   -1.35323845566966   -2.91947605903046
N         6.54700323343720   -1.46072980298448   -4.20515694111020
N         8.24177581823029   -1.39897682451371   -2.62334623846609
C         8.42282426879286   -1.39545017678757   -1.32336946473169
S         6.99335434313428   -1.41396035964473   -0.37844153065820
H         3.40161043237642    2.12262512988011    2.40564564155173
H         3.43921644513059    0.44865857044491    2.92475638445102
H         1.96302578308005    1.08141599481843    2.11678564678822
H         4.57935151212248    0.80593650958710    0.95152784374719
H         3.74542186898058    3.03589468150104    0.34243821898261
H         2.40769697049456    2.24408724588825   -0.55304746889326
H         5.44194957540209    2.20629227326041   -1.32723341051331
H         3.98808361966648    2.63432804740816   -2.22921997195423
H         4.77644635803390    0.27334134715165   -0.62947622925044
H         2.01148356238870   -0.69655172828104    0.37851093075486
H         3.42529631101691   -2.49715524869195   -0.46205620807853
H         4.72446608838765   -1.52163993714511    0.38582374187649
H         5.54300888453526   -1.46519655164131   -4.36406638054809
H         7.07452129166302   -1.92575529752906   -4.93847680107648
H         9.36800382967970   -1.33048838700913   -0.80106024510309
