32
 energy: -49.200694335374 gnorm: 0.303808118978 xtb: 6.4.1 (79825abcba525fcdf90b791dcacef51065a7a4e7)
C         2.20003313169532    1.20634814858661    1.87035182278873
C         3.23917405702620    1.12207508466086    0.72130854357798
C         3.22301262947618    2.33550341491159   -0.26473291050767
C         3.87418139551419    2.19561927912426   -1.70200018970460
C         4.24074601516160    0.61039754929411   -1.53252959004902
O         2.86662703827507    0.14492518542297   -1.29960611977501
C         3.08670473088818   -0.25103879257594    0.08225893831944
C         4.35380976857773   -1.12417019268945   -0.08092438779874
C         4.88879748982211   -0.95460206507371   -1.53534963287835
C         4.09944441057936   -1.90126662577842   -2.42480912394297
N         3.83913135615015   -2.74718236491986   -3.32297605182936
C         6.31007755244538   -1.22792633468465   -1.80631673531898
C         7.18861474227156   -0.96756903997516   -2.84140951475811
N         7.22604790745963    0.04988870696060   -3.71922448365289
N         8.30540075283359   -1.71997666632084   -2.94704606376769
C         8.32153074758792   -2.58950149127830   -1.96399113405080
S         7.01929993865994   -2.48503363633802   -0.85498388262511
H         2.09939369672352    2.24350560197432    2.21423284459538
H         2.38941519711336    0.67419898508852    2.81145334762142
H         1.19058019130231    0.91233622060420    1.55135529914731
H         4.17942023643977    1.12413386209979    1.27275200150035
H         3.60915512148871    3.26045795657839    0.17445905110113
H         2.14791445744148    2.44828816431862   -0.49473248303204
H         4.75840884099055    2.79345373586515   -1.95589778575915
H         3.17222564424360    2.12148778057846   -2.54817818520872
H         4.86788791844289    0.76663168041137   -0.63236336892597
H         2.19780784566871   -0.87267372123504    0.25400421791266
H         4.25200658251784   -2.16881195105716    0.22970486788038
H         5.23287131246624   -0.69360761733734    0.41471086552687
H         6.39992400509869    0.62087090340051   -3.87662664937021
H         7.66055652223414   -0.30729458973678   -4.56533582146542
H         9.10978853484471   -3.32253957018517   -1.85584219012914
