32
 energy: -49.229494353815 gnorm: 0.278217228009 xtb: 6.4.1 (79825abcba525fcdf90b791dcacef51065a7a4e7)
C         2.19729980155768    1.15453759980046    1.88361952737538
C         3.28335385900139    0.91800147624989    0.80114388574756
C         3.57820111429261    2.22617191713928   -0.00303423416508
C         4.39037559446390    2.24079885260963   -1.36299167294929
C         4.52409949404958    0.61112280262613   -1.41086378866917
O         3.06912643147850    0.40985480972122   -1.45167329952221
C         2.98470930436254   -0.23251482502794   -0.14974868545099
C         4.04284934102326   -1.34528311138604   -0.34113524110200
C         4.80550071428264   -1.03961197871149   -1.66599222557764
C         3.99189406164178   -1.43187342615408   -2.88851642494574
N         3.56000974122921   -2.15976156978303   -3.82323292302064
C         6.20575841053799   -1.46652596743544   -1.82470320014142
C         6.92587131612743   -1.51172224455011   -3.00386616226999
N         6.44178810736037   -1.14038684226394   -4.20176185936971
N         8.22647233509579   -1.83248977427605   -2.83056731329846
C         8.56067782711856   -2.05940792825063   -1.58174970039094
S         7.26443303106366   -1.78345015258290   -0.49537387713943
H         2.52003562943953    2.05828281920962    2.41575127802532
H         2.15801750763139    0.34029455221671    2.61859268318546
H         1.20078465995758    1.33424493212707    1.45716919992324
H         4.21061805634659    0.66035064915759    1.31295846505241
H         4.00581429562143    2.91285728669291    0.73395062223713
H         2.59735084130811    2.66457580421683   -0.26224661202304
H         5.41760141279243    2.61480098342945   -1.26994473634957
H         3.86351867110088    2.72240572331313   -2.20247434071675
H         4.97645121951402    0.52126676733885   -0.40323335088399
H         1.95117489402122   -0.56927574958404    0.00665719242995
H         3.58080805227431   -2.33595456290983   -0.39786925621216
H         4.72145370009455   -1.38992640498248    0.51984717307276
H         5.45313267440699   -0.91281923466616   -4.26540330121750
H         6.88753198774471   -1.62342084173642   -4.97653446157911
H         9.55341952187850   -2.40439482306861   -1.32515794886039
