32
 energy: -49.227814019627 gnorm: 0.283061975151 xtb: 6.4.1 (79825abcba525fcdf90b791dcacef51065a7a4e7)
C         2.08468682412078    1.39699127779256    1.61459426691778
C         3.34475673451052    0.99151263452436    0.80525678335545
C         3.58857538210097    2.22868738573855   -0.11935035445724
C         4.39387366479196    2.16774644266308   -1.48210728417143
C         4.44315206593257    0.53505595266254   -1.39316202713939
O         3.00759871089274    0.22893988464792   -1.32533617458747
C         3.04010956738499   -0.28530441592529    0.03454196130045
C         4.07214656290024   -1.41491378587623   -0.19659593138973
C         4.82012348150564   -1.11064730246334   -1.53011399499452
C         3.98838620114388   -1.65512982833474   -2.67995839042318
N         3.40742012511299   -2.19548755282456   -3.66002578487042
C         6.23581020887243   -1.44106488435353   -1.76425426135487
C         6.99106688840295   -1.26604187213907   -2.90879997657135
N         6.56235801415816   -0.54583313158891   -3.95984170469302
N         8.26783491409405   -1.70467302536572   -2.95299764225478
C         8.57685297709778   -2.16148470785150   -1.76196383981949
S         7.28503451100681   -2.22776413432612   -0.63794080424300
H         2.09653983528430    2.47439126051936    1.82231239295056
H         1.98125482967195    0.82996857833040    2.54867534500201
H         1.20928178293832    1.16642074126535    0.99193844145330
H         4.15459960184076    0.80976887130339    1.51185478699287
H         4.09397635407826    2.99067289482888    0.48188541535287
H         2.54960966438969    2.53812404550053   -0.33442121460814
H         5.38862045549409    2.62981269098542   -1.45561558361713
H         3.86977437767516    2.55490983115496   -2.37074612928436
H         4.95633267217276    0.56248758457428   -0.41137362677528
H         2.12368664862597   -0.71187668988118    0.46380787916379
H         3.46528629441748   -2.31440305671340   -0.34071565567311
H         4.72244482058232   -1.52581435695945    0.68010290800268
H         5.61780466694712   -0.20578707886855   -4.11941760849867
H         7.08400625720375   -0.55826809567939   -4.83162752504571
H         9.56564747257417   -2.53111561067689   -1.52521544899386
