32
 energy: -49.227018686033 gnorm: 0.276818119557 xtb: 6.4.1 (79825abcba525fcdf90b791dcacef51065a7a4e7)
C         2.32634905095960    1.28798063849756    1.68333549584517
C         3.52014800814824    0.89957975255864    0.77163100820542
C         3.94150264560027    2.15338631373578   -0.06226145014295
C         4.45515757500521    2.02839693514692   -1.55553364217955
C         4.33679781698687    0.39686270496238   -1.56577528572276
O         2.89065376393676    0.23133633914770   -1.36480457166298
C         3.03665945010995   -0.30632320339531   -0.02153346870474
C         4.00505969252955   -1.47960845421393   -0.30463257356363
C         4.67202383189333   -1.25837403124863   -1.69622596277442
C         3.87270483094056   -1.79062066520142   -2.87444194138867
N         3.25481515217705   -2.12855808330861   -3.92041076707098
C         6.11950119050094   -1.51762610218389   -1.77214717675827
C         6.88927175426298   -1.25362429930755   -2.88963854007035
N         6.40133012959450   -0.73484261816867   -4.02979606917944
N         8.22590344767570   -1.25724743714849   -2.69498522547412
C         8.55152191181308   -1.63297542555118   -1.48027057238006
S         7.19154004675310   -1.96421809811120   -0.49166381782550
H         2.73448920148190    2.08569386522387    2.31670210543719
H         2.00578050761579    0.42095900610790    2.27513755536463
H         1.42246337583415    1.59075081740082    1.13696754273322
H         4.27403292070944    0.62867837057563    1.51083800456618
H         4.73133311127506    2.60512967843593    0.54571246120757
H         3.09432993406094    2.85836229382219    0.01997933856884
H         5.49021689114840    2.38996184884463   -1.59616900918139
H         3.71254054278782    2.46179944561365   -2.24469019878377
H         5.03197830537498    0.32905443506380   -0.70546056155483
H         2.09329503854469   -0.74636692214173    0.32845111751693
H         3.43927355920828   -2.40932751399991   -0.42142021349482
H         4.79442743640626   -1.62744865862013    0.44291639412530
H         5.47378362025215   -1.09050523983176   -4.24529176136461
H         7.07325020240096   -0.82171551469874   -4.78693446900250
H         9.52810792989215   -1.85092297835605   -1.06896779832930
