32
 energy: -49.228700415901 gnorm: 0.282665607204 xtb: 6.4.1 (79825abcba525fcdf90b791dcacef51065a7a4e7)
C         2.09703100882205    1.08602632112696    1.80497501342962
C         3.33350236317585    0.81211858138443    0.90868855793755
C         3.67610626007991    2.19316033661215    0.26038809138606
C         4.47504249630888    2.23530029037234   -1.10681733640971
C         4.45545223387216    0.61860247456770   -1.35565914548602
O         2.99974067478553    0.42513524065411   -1.30471689925870
C         3.03760769201503   -0.32475193536948   -0.05932217753682
C         4.05231994141002   -1.44809633928292   -0.38025646484447
C         4.75366026119821   -1.01232357393922   -1.70258087458261
C         4.08239984641463   -1.35011567102248   -3.02382884950623
N         3.50481821748439   -1.51731989375898   -4.13219808321610
C         6.14962743568388   -1.43376634384023   -1.90709983552150
C         6.87977558799483   -1.80665245771676   -3.02014530266834
N         6.50641692741330   -2.11431330572976   -4.27438959476218
N         8.21520039278487   -1.94390059035804   -2.87084407669363
C         8.54564646537625   -1.62953300364311   -1.64010892750180
S         7.25004397099696   -1.24112837235359   -0.58788665238752
H         2.29317778864839    1.81612986996777    2.60030719867796
H         1.79435874923377    0.15416778043864    2.29969669586408
H         1.20026045697131    1.31744746005659    1.21383723866316
H         4.12777736033283    0.53910577390131    1.60348942106282
H         4.24823054661523    2.83919437907532    0.93332963765987
H         2.69140804077471    2.61872315989667   -0.00554795987566
H         5.49598146337283    2.63698423372648   -1.09895356075452
H         3.86838734638012    2.76484830156112   -1.85901610205266
H         4.94789847898191    0.47326363427590   -0.37362624822568
H         2.09076573548150   -0.86042270699593    0.09104814193729
H         3.49912886192127   -2.38518151883727   -0.49850122096841
H         4.78117562307411   -1.56203568220507    0.43188566634755
H         5.55450641119622   -2.05336695518050   -4.62571383380020
H         7.26514404081599   -2.32368246596094   -4.91686897648990
H         9.49594483088704   -1.86798260683657   -1.18134301511815
