32
 energy: -49.226149739042 gnorm: 0.277980074524 xtb: 6.4.1 (79825abcba525fcdf90b791dcacef51065a7a4e7)
C         2.01401988327757    1.16052535654820    1.63161890430118
C         3.28467745706604    0.95635768279329    0.76503875127276
C         3.54266365383418    2.26106630028631   -0.05722993952705
C         4.42758727527082    2.16900930731268   -1.36786385586175
C         4.46309249990855    0.53380971747061   -1.39752091799582
O         3.02474943120792    0.24126709815178   -1.32889978672434
C         3.09282614267057   -0.34552206709048   -0.00005941342146
C         4.17401553740848   -1.43347194410880   -0.20484459787383
C         4.89914045922657   -1.09648737674757   -1.54310961061798
C         4.06378900434120   -1.51119828155025   -2.74335670105701
N         3.25453770806284   -1.70947210095298   -3.68984493943670
C         6.31167481273780   -1.43901469852995   -1.77888089664532
C         6.93694859372498   -1.39648274872721   -3.01105553435477
N         6.36011813017654   -1.10367181813996   -4.18949051973374
N         8.21923472508291   -1.81809945435424   -2.96136700315781
C         8.56515132260500   -2.13243803548777   -1.73488277648480
S         7.42482893553593   -1.78761938481034   -0.50306272025780
H         2.17136114523592    2.10960761813901    2.15941112155983
H         1.90759412660326    0.26300060535560    2.25438953544467
H         1.12722061285574    1.30614517939598    0.99949632421084
H         4.04307625462720    0.84406000031947    1.53987905604505
H         3.87764686484648    3.08867628983321    0.57552946268194
H         2.55593097635165    2.60083271161324   -0.42106189498063
H         5.39542385887706    2.67628927924740   -1.26943834458817
H         3.82178763395812    2.59072155963164   -2.18604483942892
H         4.98485320377774    0.51971609635677   -0.41998195053163
H         2.19354549199807   -0.87086195117306    0.34833176935110
H         3.70213938840080   -2.41639674780181   -0.30139800278235
H         4.83119815828073   -1.55491989578987    0.66529850170300
H         5.34871642649276   -1.04039586836803   -4.26911188272029
H         6.98491205493753   -1.08367208789884   -4.99043658382656
H         9.56928042260177   -2.47396400708709   -1.52163146651832
