32
 energy: -49.229756604010 gnorm: 0.280634136803 xtb: 6.4.1 (79825abcba525fcdf90b791dcacef51065a7a4e7)
C         2.22331382931864    1.37814558037728    1.73000147010264
C         3.35550669265207    1.02520543713817    0.72960712488652
C         3.54599208479293    2.30196204976039   -0.15275058196442
C         4.36231815823135    2.18297184870509   -1.50507400534850
C         4.43296844502935    0.54977249453694   -1.44435947924137
O         3.00794209481926    0.19143240189349   -1.44798010667312
C         3.02278039836859   -0.23443353999906   -0.05758781470888
C         4.05453547652100   -1.37382401330430   -0.23595042905227
C         4.81707213912785   -1.09541989580558   -1.56687002725899
C         4.03586853325575   -1.67431537966604   -2.73519841085851
N         3.36957233218593   -2.46736284054142   -3.45434043695276
C         6.22095347980163   -1.48814227791782   -1.77436138821682
C         6.99038174256688   -1.10388862570762   -2.85665519412332
N         6.53288738860280   -0.40312631319611   -3.90870639952719
N         8.28938979449079   -1.47020517691813   -2.80301212384281
C         8.54485567688408   -2.24086625776749   -1.77172687070267
S         7.23452434679396   -2.35311639913090   -0.67306977814172
H         2.55229473158569    2.22224930703820    2.34914483073953
H         2.08780857256765    0.49922176984032    2.37331448903534
H         1.34416292207803    1.63568963019389    1.12340293726677
H         4.23689109628567    0.88136101994860    1.35460898116884
H         3.90494841869820    3.07389972665760    0.53485328733397
H         2.51697437711301    2.61960876771407   -0.40110396393899
H         5.34759513964080    2.63526537590985   -1.33658649953438
H         3.83757450065113    2.63540761065025   -2.36192902207185
H         4.95883682778090    0.56232888095431   -0.46900309579516
H         2.05885151015433   -0.64953501134646    0.26582518021044
H         3.46217194654138   -2.29309339198422   -0.28264179918233
H         4.72230878211038   -1.45532059476974    0.63078178831693
H         5.58550369130821   -0.58930459113389   -4.22663499912087
H         7.23478599531335   -0.28847254830842   -4.63429229997739
H         9.51084145373250   -2.71979629890491   -1.68290765601305
