32
 energy: -49.227471413316 gnorm: 0.279087920587 xtb: 6.4.1 (79825abcba525fcdf90b791dcacef51065a7a4e7)
C         2.30907969310307    1.38323158940148    1.76956340165620
C         3.37769437531781    1.00210325065909    0.71125337090789
C         3.45149271133284    2.24243959459973   -0.23799202191921
C         4.28899644580853    2.11019294875135   -1.57605924225533
C         4.43528565004242    0.48148925646102   -1.53199567240318
O         3.00310975672613    0.17069260805652   -1.42523197771565
C         3.05177841303102   -0.27916971397773   -0.04319436796298
C         4.12328031385358   -1.38910675172091   -0.16346850004932
C         4.77982108397774   -1.17671286819444   -1.56138160528797
C         4.08155027385683   -1.94717957645265   -2.67006964367348
N         3.31105271534733   -2.51418092501951   -3.49158234787062
C         6.22792409447642   -1.39735935072262   -1.71131214705119
C         6.96694387329292   -1.00158010324161   -2.81051147396707
N         6.57017623560836   -0.24191946160524   -3.84621017031072
N         8.24744903910075   -1.43143766938806   -2.81455018337779
C         8.51710618964603   -2.22400550863461   -1.80368331075867
S         7.22778670785884   -2.36278235890766   -0.68341014936426
H         2.73917193956240    2.19014105974131    2.37618997776116
H         2.17714209109338    0.53711636344341    2.45615052158201
H         1.35526182271282    1.54386927260408    1.24838776898214
H         4.34122624352420    1.01396257477275    1.22078521441071
H         3.91515339999802    3.07983068040331    0.29241484424663
H         2.40231353813359    2.49405398953519   -0.47751141838059
H         5.22934664111880    2.67530181045937   -1.56502813836620
H         3.64477552741894    2.46562840991582   -2.39636381269090
H         4.95137778754112    0.47655996436866   -0.55136327246194
H         2.05224876007821   -0.60086246605928    0.27854830027003
H         3.57941544219770   -2.33900988054382   -0.15838157071172
H         4.93367410962182   -1.30757964652901    0.57165247554304
H         5.60282347155958    0.02698042319407   -4.00494987433078
H         7.21583261680084   -0.00049623418318   -4.59261803215537
H         9.50310043857736   -2.59224115228906   -1.55346498555412
