32
 energy: -49.222371853769 gnorm: 0.280721990445 xtb: 6.4.1 (79825abcba525fcdf90b791dcacef51065a7a4e7)
C         2.18877373614208    1.08235712500935    1.85736010012264
C         3.37284630655500    0.88356060086799    0.87467583662817
C         3.56717055137504    2.23790198304793    0.11774468705848
C         4.10300316437926    2.26910802982840   -1.37263619086067
C         4.42114703989160    0.66677453844199   -1.45824987919993
O         3.00398239789398    0.28415889295345   -1.39214025163824
C         3.06557555110511   -0.28250193431523   -0.05427834078089
C         4.16169118041607   -1.34591836535895   -0.30371459013693
C         4.81203747326369   -0.96782876576954   -1.66915077077138
C         3.97760663385534   -1.51661783276970   -2.81498932779680
N         3.58361779187170   -2.29276738154687   -3.72735155122495
C         6.20637706904808   -1.38456370937718   -1.89346179826479
C         6.97416843832883   -1.38271153077730   -3.04303718780818
N         6.63528095323811   -1.00792948889159   -4.28877966824216
N         8.23009500914650   -1.85133335279642   -2.87711747366083
C         8.48225000550810   -2.12823999056170   -1.61915437214808
S         7.23505662008792   -1.67500650165288   -0.53485563057547
H         2.56381244769513    1.78095964123370    2.61589719608278
H         2.02341698765148    0.10515680609667    2.32901364079770
H         1.28861828570015    1.47989898591704    1.36860896806556
H         4.24189950208914    0.65361393709570    1.49114001207025
H         4.30888907027702    2.83778462826193    0.65396382104489
H         2.55861926290248    2.68080267002882    0.02763606674806
H         4.99307311958709    2.85884627559872   -1.62504950416866
H         3.28319576676728    2.50014214557709   -2.07177395819645
H         4.92813514324565    0.73684027822407   -0.47536171432701
H         2.14552281461895   -0.80746931626425    0.23550832255651
H         3.71867260673722   -2.31879991440087   -0.53901625142915
H         4.88834667619132   -1.47454002730264    0.50820651474107
H         5.66226921318102   -0.87823034614054   -4.55279311190082
H         7.29353552944876   -1.42053529140792   -4.94356161912269
H         9.39711283068370   -2.64288108451244   -1.35731107054884
