32
 energy: -49.235834653405 gnorm: 0.282313680286 xtb: 6.4.1 (79825abcba525fcdf90b791dcacef51065a7a4e7)
C         2.37658874057499    1.17532716889223    1.88792990463384
C         3.42883786017544    0.89268218457109    0.78334859310066
C         3.52291735474645    2.19835027662502   -0.07182807812946
C         4.31772132302597    2.13910659454064   -1.44080667889496
C         4.29060932931616    0.50425373391380   -1.49119443494184
O         2.85929572148828    0.21380895440273   -1.32962708358608
C         3.05123419493645   -0.35378129423976   -0.00457099715725
C         4.09953146343844   -1.44945286121304   -0.31298478720285
C         4.77034719429779   -1.10942547284970   -1.67852703132357
C         3.97309143793504   -1.53299745409060   -2.90137627856862
N         3.37278974001788   -1.79496023358547   -3.97889821185020
C         6.19631232202907   -1.42481017224301   -1.86646929925619
C         6.98463812973739   -1.44581516619278   -3.00186869852033
N         6.69309838144669   -0.98760302328540   -4.23159502466537
N         8.26142233522899   -1.82931732993178   -2.78453141705601
C         8.48052846651817   -2.00602810770754   -1.50254218285860
S         7.15995134994517   -1.69237322317179   -0.45644831050863
H         2.66365537054117    2.08625225664090    2.42819490526890
H         2.48267949527755    0.34276596646260    2.59525371717866
H         1.36473353784391    1.24905036784829    1.46613496190292
H         4.36095846563991    0.77998982448336    1.33707109825494
H         3.89555076052290    2.98438875467923    0.59211797732903
H         2.46915277505703    2.49402080351378   -0.22550121647138
H         5.36143771376113    2.44932786027469   -1.30609561112748
H         3.83791453039151    2.66188005927297   -2.28386533330794
H         4.89253570592388    0.55201714650232   -0.56199123477680
H         2.14260994046722   -0.86153415918146    0.34564763479711
H         3.60267099090365   -2.42293633132835   -0.37290500811413
H         4.89179250144875   -1.50336405010282    0.44411735323419
H         5.73212004722971   -0.81557979028606   -4.51480070909759
H         7.29973250979372   -1.33180804579430   -4.97037778794635
H         9.42489352129806   -2.41051384243329   -1.16348865827780
