32
 energy: -49.228333423026 gnorm: 0.275875321271 xtb: 6.4.1 (79825abcba525fcdf90b791dcacef51065a7a4e7)
C         2.49690257922488    1.09339626262952    1.94831371102288
C         3.50170303006189    0.82636607723513    0.79666827734927
C         3.70127120437361    2.17182638595078    0.02539896167763
C         4.30077269981422    2.16898456312023   -1.44086003613757
C         4.40292164415113    0.54125816047457   -1.56770722046566
O         2.95532366777904    0.34296910449182   -1.41194334988467
C         3.01301116329364   -0.29668013742825   -0.10722357105908
C         3.98300628301322   -1.46276154907470   -0.41366446933891
C         4.68926035368487   -1.11714885706508   -1.75979783971289
C         3.96257938608160   -1.63835387977069   -2.98889113795198
N         3.38138966750762   -2.03827490629911   -4.03403314911985
C         6.13677197830653   -1.37942389170245   -1.82373744718025
C         6.93418240648794   -1.41466389509577   -2.95242046588995
N         6.59641848090409   -1.28392728548913   -4.24702623938522
N         8.23482582874354   -1.67563269603359   -2.69804025260190
C         8.50188940798361   -1.69278239694367   -1.41308362850305
S         7.11480710519840   -1.58245686568835   -0.41286032370499
H         2.77689096555088    1.93190394405134    2.59838248275683
H         2.39075941824562    0.12548615363918    2.45487469457286
H         1.46999813678923    1.29230682770374    1.61201192946865
H         4.39444820955934    0.49556543040707    1.32745446841041
H         4.26598766609643    2.81390572814437    0.70830887103513
H         2.70345632297844    2.63757646297732    0.11973140802887
H         5.26756596767480    2.68489671352035   -1.49446633363717
H         3.59707982562931    2.60004232207883   -2.17110663591886
H         5.05710335358192    0.37612821931810   -0.68862036965903
H         1.98274034675071   -0.51329003132557    0.20532449845723
H         3.36771608558955   -2.36194110668885   -0.51866410699022
H         4.73392672804442   -1.68251961192770    0.35549903724313
H         5.63426983085793   -1.49160498204720   -4.50083081935465
H         7.28634875274763   -1.41785355026378   -4.98074417552700
H         9.47739674910934   -1.92128427633309   -1.00496149326943
