32
 energy: -49.230941472391 gnorm: 0.277544430931 xtb: 6.4.1 (79825abcba525fcdf90b791dcacef51065a7a4e7)
C         2.26181670832305    0.98217778953026    1.92168532950841
C         3.37809280331829    0.81014839859064    0.85794201549028
C         3.54818833890005    2.18965294849309    0.14171442587756
C         4.45026700904707    2.19769882714780   -1.16040496284301
C         4.44964175793538    0.57542985409717   -1.37078755093348
O         2.99023818384657    0.40533042099257   -1.35267077736140
C         3.02361391295003   -0.32311810844366   -0.09448895391717
C         3.98341120826260   -1.47546037920522   -0.47585341708361
C         4.77197709025136   -1.04379463504908   -1.74948857822795
C         4.07582540098861   -1.42780651223169   -3.04497996904893
N         3.37089738265981   -1.72007305153538   -4.04882104183975
C         6.19567603775488   -1.39313987598169   -1.88807272045208
C         6.90995569866081   -1.70056817469400   -3.03101759980460
N         6.48580770337650   -1.93689494501590   -4.28458401851450
N         8.22906686822638   -1.88324068816333   -2.80504461603735
C         8.58241091099791   -1.65735291084022   -1.56131904730909
S         7.27365093630448   -1.21145286519395   -0.54892773274617
H         2.47666691098167    1.81956914502065    2.59747608430172
H         2.10239708470162    0.12053240184936    2.58264901134255
H         1.33910089132289    1.09084212824979    1.33518331093366
H         4.28226263909561    0.50139466298775    1.38263720526414
H         3.79419966258991    2.98377801153786    0.85331847305863
H         2.53721468947393    2.54493077745181   -0.12877813706762
H         5.46513784651331    2.55210948219889   -0.94095456929261
H         4.04642733743637    2.87009278881024   -1.93439102341791
H         4.97952872427507    0.46233533362847   -0.40412074000284
H         2.01763431626247   -0.66530692412140    0.18295646867106
H         3.38390476548911   -2.38314327737906   -0.59765081012202
H         4.68337654886289   -1.61832839802161    0.35686794718207
H         5.48970836570985   -1.92181181031572   -4.48666177668868
H         7.23890901468570   -2.14873926421778   -4.93284510305113
H         9.58064099893762   -1.76457029679617   -1.15828991554839
