32
 energy: -49.231125271532 gnorm: 0.280895579404 xtb: 6.4.1 (79825abcba525fcdf90b791dcacef51065a7a4e7)
C         2.65297904441833    1.16455587903422    1.92437319194808
C         3.61805287632196    0.95668749738596    0.72744399453802
C         3.69835625015371    2.21328532267643   -0.19962694531923
C         4.31677737170813    2.04550536117529   -1.64832662769691
C         4.34955383022802    0.41433572978068   -1.52904044692008
O         2.90074795043972    0.26718867116961   -1.33300449264252
C         3.10019344386148   -0.27660759836213    0.00089198473472
C         3.92098191401272   -1.53354651910265   -0.37454541808802
C         4.64630298343530   -1.24198374456936   -1.72332949012743
C         3.86834875284645   -1.61316879050331   -2.97528759672027
N         3.32885432785527   -1.89218726172885   -4.08033718361504
C         6.07962231830354   -1.56773430742299   -1.81078574203266
C         6.95846423995439   -1.32281252178912   -2.84938132422050
N         6.57649589804640   -0.98583281055867   -4.09345748499095
N         8.27766712475910   -1.34437324374593   -2.56002653915718
C         8.46214589830220   -1.68625529284260   -1.30630614031551
S         7.02303077423666   -1.90618338983404   -0.40231776261958
H         3.12969211579985    1.88560422808684    2.60032582498201
H         2.55351311960010    0.20133123051327    2.44111798932776
H         1.67897147537664    1.49756281619058    1.54016924849952
H         4.62421943679290    0.81110555839747    1.12062557368286
H         4.36797354672254    2.93617227647579    0.27638107641696
H         2.69908713787297    2.66751862879548   -0.32842767216899
H         5.33835341088414    2.44297811030939   -1.69443537648190
H         3.69380511501443    2.40433258989387   -2.48343328895878
H         5.01305294504389    0.36885873110271   -0.64263418603370
H         2.10091163451870   -0.48020297261871    0.40838294815258
H         3.25964661080519   -2.37785158219503   -0.59344129314595
H         4.61683656061045   -1.74504346635247    0.44694284491421
H         5.59517125460334   -1.00437663051331   -4.35790952972901
H         7.20999771165965   -1.18790042820693   -4.86165418096224
H         9.43950812552457   -1.92401738039594   -0.90803032587709
