32
 energy: -49.227595838327 gnorm: 0.280924431889 xtb: 6.4.1 (79825abcba525fcdf90b791dcacef51065a7a4e7)
C         2.26506850505111    1.10361665116872    1.87094756512389
C         3.45466028129989    0.83681114047033    0.91131091867758
C         3.85535374434464    2.16532108431342    0.19057981179244
C         4.47691931008045    2.23526114764422   -1.26478618921622
C         4.48197284967360    0.61397044172082   -1.48252165637369
O         3.02585830752588    0.49360758703129   -1.32643178497567
C         3.07798183814595   -0.25466987545464   -0.08058401056104
C         3.97983907171701   -1.42728229603303   -0.53465014148357
C         4.73502152329336   -1.02291899659050   -1.83715073067263
C         3.94808420691686   -1.51902476518594   -3.03923182369955
N         3.26621872257243   -2.23485902858782   -3.82197118338006
C         6.13645450810397   -1.46429980451253   -1.93376807824929
C         6.94005136088826   -1.60869635373940   -3.04930037821118
N         6.57034671534457   -1.72491012180351   -4.33654295805957
N         8.24577616456209   -1.74218139059404   -2.73031481457939
C         8.45262926282240   -1.59925871409701   -1.44209297985273
S         7.05069364201752   -1.45901565114514   -0.46663201417710
H         2.55017228048431    1.91881383782284    2.54788731140950
H         2.05714219109255    0.16466297543490    2.39995892798504
H         1.34209110300486    1.40663433025425    1.35763475999298
H         4.29478576702418    0.45410929999529    1.49086719027659
H         4.40802636920353    2.75674792147370    0.92699258490197
H         2.94104195176501    2.76711619885443    0.03782881101168
H         5.52133917341108    2.56313519419346   -1.33836581940265
H         3.86531407708272    2.79505408423482   -1.99061361191255
H         5.06143968309187    0.52241982215279   -0.54238764257478
H         2.07518871520067   -0.64791694090787    0.13348792868634
H         3.36565634960375   -2.26288047196525   -0.88491590559654
H         4.62013843121671   -1.78950872324872    0.27935008182563
H         5.63081429096233   -1.48892993432118   -4.64455104861112
H         7.38068318844418   -1.69765869218581   -4.94882899852562
H         9.44013905893542   -1.79608960810717   -1.04652584216158
