32
 energy: -49.227906910399 gnorm: 0.284795451170 xtb: 6.4.1 (79825abcba525fcdf90b791dcacef51065a7a4e7)
C         2.47892161097004    1.35051156277593    1.83963540160752
C         3.51002731017437    1.10442882161113    0.70672737688305
C         3.45049067104618    2.24808663283448   -0.35790845550324
C         4.13962115661844    2.08959131107979   -1.77540765307311
C         4.33256864295815    0.47076376618469   -1.64055033153957
O         2.92285272414187    0.16625079243194   -1.35931429531097
C         3.08694960904252   -0.19659073651040    0.03932466382540
C         4.14415686698777   -1.31198980833681   -0.14161769388736
C         4.76330005300236   -1.16567794073354   -1.56484379819163
C         3.99881591963420   -1.95566905776021   -2.61454294914787
N         3.49865438192165   -2.64534598325832   -3.54417961261220
C         6.16648804745189   -1.53425586564561   -1.81659791027142
C         7.01594707632218   -0.88116203621118   -2.69004992258800
N         6.66700118600627    0.04339386779377   -3.60143008002967
N         8.30724169043211   -1.27716321405942   -2.67493018960869
C         8.50093056713635   -2.13775301468737   -1.70302463418059
S         7.10101505610540   -2.60431234047481   -0.83171834177567
H         2.51802946161208    2.26398973461204    2.44635299787460
H         2.53153090424669    0.47052494043044    2.49352850181402
H         1.49434270373692    1.36228996501759    1.35212880671518
H         4.48144151027272    1.10908413571495    1.20118645811050
H         3.84358921020821    3.14659916916860    0.12756581655677
H         2.38494644353400    2.41237461617523   -0.60097478558534
H         5.13674095843803    2.54631544054580   -1.80512932579829
H         3.54254983560553    2.41954548280024   -2.64079232380987
H         4.83725050323534    0.59355491329363   -0.66165613399026
H         2.08962250845897   -0.57884533844684    0.29483233753729
H         3.56497351592466   -2.23363597673830   -0.02652724336488
H         4.85472998365097   -1.31507221986231    0.69436314323052
H         5.72676437573856   -0.04713818565292   -3.97697702153230
H         7.39646287281318    0.15306465731589   -4.30010024925370
H         9.44005524708635   -2.59403730552271   -1.41975649151607
