32
 energy: -49.227312235624 gnorm: 0.288500005368 xtb: 6.4.1 (79825abcba525fcdf90b791dcacef51065a7a4e7)
C         2.34635529693520    1.37504296555641    1.81974748345191
C         3.35339810529426    1.06695048042205    0.68037920603830
C         3.56258846020861    2.24711356335902   -0.32381288111530
C         4.25505498519714    2.10772246739324   -1.74169362548854
C         4.41587420448835    0.49773321156050   -1.50067573992995
O         2.98135110596694    0.19486314480960   -1.40303335936326
C         3.00924124161783   -0.24199151892535   -0.01625549537395
C         4.08024858470757   -1.35372445675384   -0.12365920794123
C         4.78739356091753   -1.15489255739132   -1.49869733173170
C         4.04058527095338   -1.85717803186431   -2.62095520620259
N         3.60485435788174   -2.53289618902501   -3.59233756501528
C         6.21011944854221   -1.47234885851528   -1.70663697091425
C         6.98252582417553   -0.93810643034703   -2.72103532368593
N         6.50205420369447   -0.07571014167469   -3.63350466746453
N         8.29719880233047   -1.24733317387847   -2.69865016369477
C         8.49489777804059   -2.11753192216554   -1.73615348912313
S         7.12909927927820   -2.66567805496151   -0.85823209360358
H         2.51420926422497    2.39829280873087    2.17872219040083
H         2.49982090249763    0.72622483083790    2.69164410292089
H         1.29206062721971    1.33401940426759    1.51319104258042
H         4.26323000521737    1.00009113702778    1.27694667575055
H         4.05953671444182    3.04611795485190    0.23490970081952
H         2.56015718159350    2.65161039909392   -0.55396527619523
H         5.25693793032401    2.55446335772584   -1.72216549919963
H         3.55738308649605    2.41387398147926   -2.53779645645419
H         5.06446862764319    0.55347425732880   -0.60388507099880
H         2.00852606486425   -0.66418041316309    0.14619378670376
H         3.67661049105822   -2.37007490579874   -0.07634240800316
H         4.84540712791322   -1.24390756945448    0.65496796550626
H         5.56379319527207   -0.24738537756139   -3.98488865912378
H         7.12134304822471    0.11775696384086   -4.41538307417190
H         9.49125052501002   -2.50116907068856   -1.56152502052923
