32
 energy: -49.188166056832 gnorm: 0.290390472390 xtb: 6.4.1 (79825abcba525fcdf90b791dcacef51065a7a4e7)
C         1.85888847381347    0.74158592199739    1.70382896035847
C         3.20480397726837    0.80059735743683    0.93425415806205
C         3.59736382174540    2.20117052277750    0.36046079067185
C         4.07357192944510    2.33893332797366   -1.14405667714728
C         4.43405530177909    0.76481815319090   -1.40526729078276
O         3.00919695822038    0.43586049280272   -1.26143964828566
C         3.14017370484060   -0.35845542080923   -0.05037399308240
C         4.32453911178984   -1.29434413236076   -0.39086381106463
C         4.88722491182633   -0.82662055770558   -1.76743104620391
C         4.17187392524577   -1.46215406382313   -2.94843077679720
N         3.45130581782007   -1.89741530993547   -3.88724353125504
C         6.29739346235078   -1.17640265856925   -2.00668717821758
C         6.90938839715490   -1.93245074129774   -2.98897231955165
N         6.27719384230420   -2.43428143929075   -4.06399633714897
N         8.12551384697797   -2.41024026909245   -2.64656412232138
C         8.64725167688294   -1.74433394514485   -1.64302588307781
S         7.52648358611263   -0.68601587562130   -0.89438882389171
H         1.84198490600089    1.17481467087965    2.71184937494982
H         1.44057373564737   -0.26641287107125    1.82075454313539
H         1.17822874696754    1.41309675867568    1.16255955675296
H         3.90414565233893    0.57400956562499    1.73907475741469
H         4.42617492657833    2.52821110449462    0.99579780216667
H         2.85640030161816    3.00426672291869    0.52618899067599
H         4.91665185808907    3.04102222003432   -1.14010448464539
H         3.36878664576637    2.50260059145411   -1.97516754937977
H         5.08953813827480    0.75246750479355   -0.51184409837426
H         2.22262206062645   -0.90447121905968    0.20658870158883
H         3.96319773740644   -2.32536835099954   -0.45833455778574
H         5.17433746666572   -1.38069999631081    0.29773842790215
H         5.68028241463926   -1.68699471679346   -4.40828709051671
H         6.64180520334038   -3.12844743535164   -4.71011873960706
H         9.67460531838487   -1.93675325856261   -1.36390106930580
