32
 energy: -49.224351619093 gnorm: 0.278867136796 xtb: 6.4.1 (79825abcba525fcdf90b791dcacef51065a7a4e7)
C         2.31064056745965    1.11691173321429    1.75992864565782
C         3.48459125731598    0.90024746130717    0.76891268142281
C         3.69020654079519    2.21128544558327   -0.05803895770166
C         4.57147358175510    2.15227742158875   -1.37303402356204
C         4.53407101759561    0.51785883308870   -1.43043404019577
O         3.08829988913420    0.25816272282951   -1.39269011832948
C         3.06464637427887   -0.30949100522938   -0.05404062817782
C         4.09832024309447   -1.43253562706055   -0.30866097563093
C         4.77661942426252   -1.13966376811147   -1.68141524527429
C         3.88322567522242   -1.51397799671767   -2.85279336114496
N         3.24989453500627   -1.84907006878661   -3.89040846319246
C         6.14869844928969   -1.64421266476398   -1.85747179281752
C         6.87407016424071   -1.46822249196257   -3.02104126772172
N         6.43640290041540   -1.38781730518282   -4.28956915370801
N         8.19173591070651   -1.57863690580567   -2.74526427142591
C         8.46959422464500   -1.63531162318075   -1.46373654076871
S         7.11079368089282   -1.72814821644418   -0.42370858588682
H         2.39343363965161    1.92388366303513    2.49886006840863
H         2.02790471772240    0.20929560999235    2.30857588339182
H         1.45379804751593    1.30446772653427    1.09823333752547
H         4.39436744032663    0.68577457139841    1.32968507702253
H         4.11190708889869    2.93241874478115    0.64883579811531
H         2.72620822604567    2.64947189354469   -0.37451355102335
H         5.59970401494070    2.51848609132796   -1.26185134467920
H         4.07096921375674    2.67619790526282   -2.20324920472718
H         5.03277083810138    0.42744887552544   -0.44496977440317
H         2.06283374138375   -0.69664744953230    0.17518727774648
H         3.58034099936806   -2.39648803603034   -0.33364261361537
H         4.80699759809544   -1.64349763137641    0.50193081693297
H         5.43120783829241   -1.34223279882726   -4.43372792661100
H         7.07116673455575   -1.02527635041723   -4.99520430154962
H         9.46761572669593   -1.65060000631373   -1.04647079246394
