32
 energy: -49.227970958115 gnorm: 0.281739210804 xtb: 6.4.1 (79825abcba525fcdf90b791dcacef51065a7a4e7)
C         2.47634814087766    1.18029558085697    1.79298392474704
C         3.52049520086900    0.89713090101204    0.68087288984849
C         3.71167729579905    2.17190366088351   -0.20419833719126
C         4.47075731266544    2.10931994520036   -1.59315707675906
C         4.39203023595136    0.47536566695255   -1.58950876538637
O         2.94162635272641    0.24672828362837   -1.53316741251854
C         3.01260317824833   -0.25758562689575   -0.17103582143482
C         3.98803301882955   -1.45268529107319   -0.29275616293196
C         4.72439329344068   -1.18479710454914   -1.64046809829690
C         3.99143486974190   -1.84273940046822   -2.79817018715493
N         3.15087518558209   -2.24472880487606   -3.64781957266298
C         6.16314832936743   -1.47152236708816   -1.76671759018256
C         6.96178282467574   -1.11682154155033   -2.83788558672282
N         6.44629981367302   -0.49870649460454   -3.91463611457233
N         8.27606595142734   -1.37422477048543   -2.66212792259615
C         8.52345452705505   -1.90055217818114   -1.48547634079114
S         7.14218207239435   -2.11007766704304   -0.49310485188003
H         2.92903264256367    1.80106080328148    2.57644120967991
H         2.08190240879512    0.23070661529285    2.17692889593010
H         1.67449048400893    1.77748445880601    1.33736700472312
H         4.44158512551813    0.67268808346816    1.21880948243278
H         4.24768233050625    2.82236037211636    0.49375666099769
H         2.70724117405069    2.61109872200273   -0.34445545633288
H         5.47055595181072    2.55484652438758   -1.51807745410918
H         3.88087828443453    2.57346438953101   -2.39992049540123
H         4.97145952845794    0.44165547100689   -0.64550632113169
H         1.99237964832941   -0.53848198494249    0.12274179046765
H         3.40951154844521   -2.37880461344680   -0.36856340378462
H         4.79644659691151   -1.47044356324640    0.44882306764136
H         5.44785986877413   -0.59197824142818   -4.08105388622112
H         6.97272924198658   -0.56591881606623   -4.78102898038242
H         9.46922660193142   -2.25941466031258   -1.10190853802665
