32
 energy: -49.234857659004 gnorm: 0.277475383213 xtb: 6.4.1 (79825abcba525fcdf90b791dcacef51065a7a4e7)
C         1.97938023249522    1.22243978273659    1.62618020251013
C         3.28656326964598    0.94968737983032    0.83618342683950
C         3.60309507823567    2.25663723895450    0.03828811039719
C         4.41452783586869    2.19226757763405   -1.32066700166472
C         4.45839421951723    0.55806768477565   -1.37969512089672
O         3.01267141390012    0.30290754684164   -1.31724750976891
C         3.08848249660251   -0.30717480952794    0.00063901802904
C         4.17442282061460   -1.39103327346611   -0.20067382913583
C         4.82946399844271   -1.08232643523686   -1.58123138002103
C         3.92581376916538   -1.46609913067082   -2.74163004114946
N         3.45207402808824   -1.84255081219571   -3.84792789726548
C         6.22347769209397   -1.49713667502439   -1.81106754436511
C         6.90803114549172   -1.47741206378286   -3.01191229780168
N         6.45021781666692   -1.13871466799664   -4.22964448332768
N         8.21825080388666   -1.79841713941807   -2.94286514615378
C         8.58978656064864   -1.98290311878009   -1.69761147733618
S         7.33300955580668   -1.86789722206695   -0.53834407886513
H         2.05329525644833    2.13643087474220    2.22886991495272
H         1.86711044406964    0.49051323986696    2.43636500252475
H         1.07416103896015    1.28779393952302    1.00690313936135
H         4.08738685035793    0.74238109392867    1.54601629507460
H         4.16035067252661    2.92509067763432    0.70174324202034
H         2.65470450167071    2.75272478412965   -0.23722730663549
H         5.46950042112168    2.49141236735603   -1.35635244513163
H         3.80838649028282    2.67102140037015   -2.10656902939742
H         4.98883816795526    0.55804624102541   -0.40673853886025
H         2.11832168545093   -0.78721552808255    0.18614645340967
H         3.73357146087741   -2.39290664299410   -0.20621106093393
H         4.96689268806471   -1.32346769146998    0.55511319535665
H         5.46283362824910   -1.23998249225706   -4.44894817090858
H         7.12402511337313   -1.30017892820448   -4.97274276646966
H         9.60913007904744   -2.28331888790494   -1.49492818552543
