32
 energy: -49.227911613878 gnorm: 0.278417596352 xtb: 6.4.1 (79825abcba525fcdf90b791dcacef51065a7a4e7)
C         2.11768195778290    0.92521166348323    1.79696533711332
C         3.33931587652594    0.86613372334322    0.84232580427904
C         3.54226950708834    2.24573852421294    0.13490254027130
C         4.36865137329209    2.35150868286900   -1.21240264141768
C         4.52035076915651    0.73429867840430   -1.40640505914968
O         3.07032775754325    0.49662078498827   -1.41436211716695
C         3.08543223768234   -0.24681946934947   -0.16462568697374
C         4.13417035532710   -1.34048675866392   -0.47860441602859
C         4.89327478479358   -0.87974878963865   -1.75993146374932
C         3.97210670876172   -1.35148246360144   -2.87317310444652
N         3.22522946669089   -1.78013881880484   -3.79429646877864
C         6.30291744044536   -1.30091848505207   -1.82067691311885
C         6.89641745766911   -1.73931570274410   -2.98969196879729
N         6.44309141032522   -1.74684825941958   -4.25524299048674
N         8.16711507446647   -2.15917317293511   -2.80656745707456
C         8.55891676907242   -1.95098317539304   -1.57130272767860
S         7.35784398308492   -1.44471982903743   -0.45876630746918
H         2.30042505704147    1.73138255965412    2.51861032086100
H         2.00465999137367   -0.04600116460345    2.29565567949549
H         1.24027962514721    1.16669955051787    1.18129839573728
H         4.22899850169683    0.61683226075575    1.42066014701321
H         3.96854442383776    2.93014198146076    0.87477963249046
H         2.49549967123562    2.55960565445580   -0.03007205850771
H         5.38137865707953    2.76656950810024   -1.13600783518000
H         3.76172811629912    2.80063178342417   -2.01501534298024
H         5.06325964073950    0.57873552406741   -0.45295587011394
H         2.11502800186361   -0.74490594062564   -0.03699502212243
H         3.58380331904605   -2.22655593573918   -0.81043023711150
H         4.73177124490337   -1.59931501479934    0.40438410670976
H         5.44126362980908   -1.78197982786275   -4.42371756869797
H         7.06071954116353   -1.98344574680353   -5.02650115342846
H         9.61893631743662   -2.04823169936201   -1.37818969769262
