32
 energy: -49.221674044157 gnorm: 0.294985933628 xtb: 6.4.1 (79825abcba525fcdf90b791dcacef51065a7a4e7)
C         1.98736156970156    1.08140737731289    1.65761056184919
C         3.31766691643344    0.93178600755439    0.87331635647223
C         3.66828924500511    2.24457569149235    0.09962747693004
C         4.13257290414251    2.20125581496257   -1.41427134455233
C         4.38783857985908    0.58582446252819   -1.37907414493257
O         2.95698614015575    0.27518410230319   -1.25544286170898
C         3.14544328601906   -0.33698106850172    0.05012613626719
C         4.22651246245481   -1.40180125524532   -0.25317209688290
C         4.86648676116361   -1.02065243637856   -1.62265246288380
C         4.04702169234625   -1.47188800397772   -2.82067321199343
N         3.29813748426948   -1.93277912588118   -3.72443864752675
C         6.30101352340584   -1.25141434116872   -1.86150026915655
C         6.96723762829299   -1.45432371311101   -3.05565428871930
N         6.57249413144076   -1.31271037938766   -4.33287935430824
N         8.23514738935616   -1.89653636879060   -2.90957170253077
C         8.53576185670697   -2.07212647770945   -1.64405613588640
S         7.28615954834842   -1.72755801557662   -0.52317151041011
H         2.12246456367866    1.94279480237083    2.32382143051610
H         1.69055186309370    0.24048531500491    2.29751247808546
H         1.15841914351455    1.22121587259878    0.95014672969513
H         4.12422555050753    0.77113316285168    1.58872591513930
H         4.56918766888762    2.67204995021396    0.55038716610125
H         2.89662109197720    3.03542720147014    0.12283163038218
H         5.01388725830889    2.81922619258235   -1.62669974935399
H         3.39114902457300    2.47819665160383   -2.18098442923937
H         5.04438802592599    0.65409326349524   -0.48896320543138
H         2.17310251156471   -0.73841271499229    0.36551502144662
H         3.88816957434938   -2.44249905886747   -0.27772813307304
H         4.99269559590501   -1.27924309676320    0.52254081841034
H         5.74672562145330   -0.74216904586092   -4.49370773802304
H         7.23738193983680   -1.34797414772994   -5.10031840767364
H         9.47395319032302   -2.48337482402136   -1.29611479259539
