32
 energy: -49.231307487578 gnorm: 0.289599529174 xtb: 6.4.1 (79825abcba525fcdf90b791dcacef51065a7a4e7)
C         2.32214920074035    1.36233930018128    1.75755095461552
C         3.41217623899077    1.07942345052077    0.69030405323814
C         3.51298168482328    2.29085997509049   -0.29316280646671
C         4.11614863279994    2.09535081792321   -1.74481406352739
C         4.31332509601959    0.48617040588653   -1.52646182574841
O         2.89695746103584    0.16661010772717   -1.30084097913493
C         3.07986520186123   -0.27196968437092    0.07355533404099
C         4.16423990535296   -1.35745867015715   -0.12741127727913
C         4.80033832721168   -1.13616521093663   -1.53337216068292
C         4.01397811974944   -1.85491555214386   -2.61754273193591
N         3.54967975879896   -2.45542557450369   -3.62444634893681
C         6.23718392925671   -1.38403692470791   -1.73880023804786
C         7.04059140130593   -0.96846112947768   -2.78420149941538
N         6.71074538382694   -0.09154830398654   -3.74825862501717
N         8.31924771594382   -1.38815746987447   -2.66852812429776
C         8.51931059817096   -2.19590248423742   -1.65351412068866
S         7.08249127544773   -2.55829287148157   -0.79279399325475
H         2.55618622787074    2.33672804232727    2.20462062000683
H         2.27890639180080    0.65163220395708    2.59286278987502
H         1.30638713719622    1.37959479300204    1.33906951754790
H         4.33697082289891    0.99471050177065    1.26103665085450
H         4.09080991882161    3.10100133209625    0.16216347435330
H         2.53079832930116    2.76401381634902   -0.47453971101774
H         5.05143900453371    2.60800652396517   -2.00199931310954
H         3.29668081175126    2.27646359047132   -2.45890453743629
H         4.94988440410930    0.60110671437338   -0.62668563944751
H         2.16779381332273   -0.74281153956966    0.46406503654114
H         3.80958123840485   -2.39299917977397   -0.12543275445851
H         5.02388152608370   -1.31798128105223    0.55321009001909
H         5.73818559341135    0.04420031243371   -4.01089255585074
H         7.29869373480366   -0.22797765456333   -4.56556261257103
H         9.45294271463786   -2.73628884228640   -1.57162997192891
