32
 energy: -49.226608411873 gnorm: 0.281944520142 xtb: 6.4.1 (79825abcba525fcdf90b791dcacef51065a7a4e7)
C         2.37846085163211    0.77242276663500    1.97037078259923
C         3.50910964739338    0.58034117950314    0.92540464207967
C         3.67522970282566    2.02041445066275    0.33928148312930
C         4.61613856417637    2.12714675039519   -0.93060996944381
C         4.39034625734328    0.56688050761825   -1.36719323857981
O         2.92504020675009    0.47497500494691   -1.30759139185123
C         3.06390689399147   -0.39773796714041   -0.15266247133961
C         3.90308076416335   -1.55627013963536   -0.74269029299526
C         4.68127472980649   -0.98956384998516   -1.96889424066293
C         3.97750125436895   -1.18525897088541   -3.30185955945829
N         3.43210452828621   -1.03818327246073   -4.42922431177133
C         6.13550111032399   -1.22013221289660   -1.98406730424157
C         6.84820386570983   -2.07808090323171   -2.80077375262811
N         6.36032796459024   -2.84736794190453   -3.78938651515152
N         8.17230413713648   -2.10184621538074   -2.53491477330462
C         8.48568717207385   -1.35035687000514   -1.50545596898268
S         7.17731957168094   -0.48305428198082   -0.81801423323517
H         2.60061191808896    1.54217880359237    2.72017247864563
H         2.21729241113538   -0.19239698088553    2.46823418572149
H         1.50218660094480    1.08603923444315    1.38643141582579
H         4.42667360626631    0.32672159770951    1.45635708012271
H         4.17444820504470    2.60595001468071    1.11739811922653
H         2.69964806206815    2.42341830168634    0.01173814057390
H         5.65480204808752    2.33308172965523   -0.64338678276798
H         4.31647300375851    2.87911039980036   -1.67827685488667
H         4.97779334168795    0.27409885681077   -0.47433259775879
H         2.08939030795980   -0.85109675422283    0.07283105790296
H         3.19064818822619   -2.30402235076301   -1.10523309589686
H         4.58569463655650   -1.93378452296340    0.02887228346444
H         5.64410773047806   -2.42477981421764   -4.37395872388255
H         7.16403704501344   -3.30053476644369   -4.21479641565427
H         9.52934065394352   -1.23856409155117   -1.24338509428298
