32
 energy: -49.228077227625 gnorm: 0.282992779713 xtb: 6.4.1 (79825abcba525fcdf90b791dcacef51065a7a4e7)
C         2.22773032573718    0.84626090810144    1.81693631070646
C         3.37384467127125    0.73873650380374    0.77670716234286
C         3.79159833667739    2.13030768370412    0.19881549104788
C         4.67173980638732    2.21141893847208   -1.11575574296196
C         4.51512291814810    0.61073698952076   -1.41459736030914
O         3.05719202978843    0.44014876873941   -1.48136570146773
C         2.98226086405988   -0.32035046415993   -0.24411110389825
C         3.94720489820594   -1.47684214100179   -0.59900888186546
C         4.79609812388887   -1.00966334734030   -1.82025508228308
C         3.80231156496572   -1.25818259654673   -2.94320508152100
N         2.96509257838763   -1.46526585144402   -3.86310781324864
C         6.20420293960994   -1.43616039700398   -1.87947881019935
C         6.95825606253848   -1.87854354769314   -2.95033437024983
N         6.49542876201575   -2.26074826797745   -4.15320222600290
N         8.28915041449920   -1.88619136184455   -2.71979359370102
C         8.57312686124655   -1.47230622705730   -1.50703349122712
S         7.22384583668032   -1.05457906846064   -0.53669312037638
H         2.36293591264014    1.70703716496413    2.48391586167570
H         2.18845904592745   -0.09207020217322    2.38501453938638
H         1.25379169338546    1.06301792013996    1.35687438720806
H         4.20660736778815    0.40370968393461    1.39510859043996
H         4.21662626254893    2.79292913412228    0.95896059847333
H         2.87181895017073    2.67287921633229   -0.08592701709048
H         5.71159314114263    2.44957477863296   -0.85940628098222
H         4.22207657088472    2.89197069461491   -1.85663821087213
H         4.96596129612024    0.33104331333105   -0.44169885551084
H         1.93867562107774   -0.58598646828575   -0.02863151525002
H         3.33940416772859   -2.35102879092636   -0.85299078267279
H         4.60030483607634   -1.79225919133058    0.22425303244488
H         5.50070211425482   -2.08577868745038   -4.26801232509508
H         7.14428268387987   -2.36957047777188   -4.92742980796862
H         9.56379397369099   -1.59097852595073   -1.08883865967049
