32
 energy: -49.230827824664 gnorm: 0.273735254967 xtb: 6.4.1 (79825abcba525fcdf90b791dcacef51065a7a4e7)
C         2.43048522920790    0.82663631479306    2.03482791433911
C         3.44136377344171    0.77648970055927    0.85889162501984
C         3.58655720667573    2.16406999242745    0.15285546654683
C         4.32873387063726    2.32563558496906   -1.23725097852631
C         4.32005277273667    0.71088422763613   -1.49901525392452
O         2.88858586099110    0.40341879239946   -1.37456320893975
C         3.03503431187196   -0.31649476094849   -0.11955323799477
C         4.08192995556119   -1.37532922654857   -0.54076755483084
C         4.76113799352481   -0.88520383402689   -1.85559512357559
C         4.03632152912340   -1.27190814753357   -3.13445833120422
N         3.41967205005945   -1.69868101733302   -4.14818831334796
C         6.18732104519647   -1.24075399047754   -1.94364251063573
C         6.92958506844971   -1.77278648511659   -2.98143638854610
N         6.55899731227857   -2.11258971653306   -4.22818380123489
N         8.22292728059939   -2.02241809839196   -2.68237570393492
C         8.48503814520946   -1.79739946264063   -1.41612331969528
S         7.17591563730659   -1.13675367488728   -0.52935328249866
H         2.70843365221212    1.58557002188577    2.77701545044383
H         2.41076016454828   -0.17114343005318    2.49173806111980
H         1.43201727246436    1.13377571046972    1.69435153318226
H         4.39880458457593    0.48910086798752    1.29348540825268
H         4.07188659039065    2.92430184838218    0.77256461072277
H         2.53282151749975    2.45860015924643   -0.00318735320409
H         5.30641206689824    2.77874651700883   -1.03094046155800
H         3.69664341969885    2.93243690594146   -1.90546379148643
H         4.88142380685547    0.65087815471296   -0.54545501496386
H         2.14399907696165   -0.88847372492840    0.17192639087395
H         3.55581599516524   -2.32306302292356   -0.69287139998623
H         4.74589231395831   -1.47931105968067    0.32648637736044
H         5.58499886290107   -2.03073953343263   -4.50729736269362
H         7.29062939169914   -2.47901736039678   -4.83045227641492
H         9.46301769881300   -1.93248057790472   -0.97374289126046
