32
 energy: -49.228640517945 gnorm: 0.280355051343 xtb: 6.4.1 (79825abcba525fcdf90b791dcacef51065a7a4e7)
C         2.17385969312644    0.14867148587500    1.90793638057960
C         3.29040327997864    0.36044948093795    0.85167089803002
C         3.70126952713246    1.85567342288827    0.65057006354128
C         4.62443956227941    2.27892929008616   -0.56513431013525
C         4.51242319845427    0.80684225159767   -1.26971215280672
O         3.05479865361941    0.77867155706154   -1.45317311404422
C         2.86734781551185   -0.27285162333225   -0.46629222724434
C         3.78245408159956   -1.36004326300633   -1.07877673731780
C         4.79148621711825   -0.67178385199339   -2.04752393275243
C         4.33788661837441   -0.59545904537066   -3.49625170931826
N         4.01408631766308   -0.63174909036014   -4.71439642119087
C         6.18487057965448   -1.14628896693054   -2.00890683478834
C         6.70722176521161   -2.41443469489954   -2.18207223148721
N         5.96778601409842   -3.53396155436398   -2.26618538088408
N         8.05650516812498   -2.45552172956030   -2.22933183421508
C         8.61119515092464   -1.29664281533918   -1.96091187098250
S         7.47772141216655   -0.03011524656284   -1.74236920406141
H         2.44256250328125    0.52268131231437    2.90392507812584
H         2.00117879734632   -0.93524017732752    1.90183765929318
H         1.25595255529986    0.68153173131373    1.62385280096626
H         4.09894944031788   -0.22456396602179    1.29004217640332
H         4.23710352050937    2.16514751418218    1.55314650162666
H         2.76917533765840    2.44803705242793    0.60859346649968
H         5.64585148521963    2.57163122163974   -0.29169059192774
H         4.23807938224822    3.09246715911019   -1.20006461725604
H         4.78211857407075    0.40036590959614   -0.27469623279335
H         1.84710566999123   -0.67601655972923   -0.41502725554389
H         3.12338460175371   -2.04381640734208   -1.62303084651944
H         4.32877418928348   -1.92002992984938   -0.30953237232086
H         4.97898067062420   -3.31743764931126   -2.35923488156747
H         6.39945090657381   -4.24970826823256   -2.84381337506689
H         9.67848247445339   -1.12658741493772   -2.00959747119439
