32
 energy: -49.225410107717 gnorm: 0.287801939704 xtb: 6.4.1 (79825abcba525fcdf90b791dcacef51065a7a4e7)
C         2.08556638657632    0.80367829715923    1.92490294228565
C         3.25576622726758    0.70967462047649    0.91050069819923
C         3.41287006266269    2.15108651498805    0.32518250060661
C         4.31161651237563    2.37960979568900   -0.95909063972274
C         4.48164922392816    0.79482615577946   -1.32728562448862
O         3.03272421298489    0.55054960610711   -1.33541637434105
C         3.00005593362721   -0.32589996818237   -0.17544153449032
C         4.05652110298894   -1.37250846500169   -0.60326675512931
C         4.92024453792809   -0.78314674708890   -1.75953342303599
C         4.14988409442646   -0.95662942158497   -3.05831702002029
N         3.67351179767415   -1.25071271320476   -4.18819516196502
C         6.28465399496377   -1.31087481335140   -1.92703353311871
C         6.84872256702060   -2.08468868357962   -2.92406379415438
N         6.23274776263746   -2.71329612566836   -3.94023718738273
N         8.16910722225543   -2.33693306875522   -2.79198634928474
C         8.64692660599624   -1.73699960993664   -1.72685768253994
S         7.50756812730853   -0.86557542288553   -0.78925550623866
H         2.41749061788832    1.29534687861510    2.84803150707391
H         1.75288680349431   -0.21206575938420    2.17452002177614
H         1.20039620416019    1.34278159709359    1.56015862738942
H         4.03933509755500    0.28760090203555    1.53981032496221
H         3.78073699280002    2.90368714234757    1.02931510618292
H         2.37353645829886    2.39571276471889    0.03987575278000
H         5.32962586353121    2.66595279155626   -0.66687007014910
H         3.90024704257361    3.01515740816328   -1.75978342649966
H         4.93754777878777    0.51472830580275   -0.35686458297836
H         2.02554853026349   -0.81242210478372   -0.03510040958362
H         3.55033967788146   -2.29310248863444   -0.91054161515086
H         4.70749552183765   -1.61696242343350    0.24541586722808
H         5.33398851598585   -2.41912816329831   -4.31302914036263
H         6.89353054578276   -3.12624584823828   -4.59224997740628
H         9.69544797233691   -1.79120722698756   -1.46598254301955
