32
 energy: -49.228164084695 gnorm: 0.279923902383 xtb: 6.4.1 (79825abcba525fcdf90b791dcacef51065a7a4e7)
C         2.41509062593109    0.91690950613549    2.02952812249743
C         3.44405034232515    0.74614047533752    0.88092196321277
C         3.57977743557059    2.15769058098581    0.22209595433347
C         4.37870556603880    2.23603399918807   -1.14351809005394
C         4.41597591346547    0.62442684319069   -1.42163885193752
O         2.97143146760768    0.37069349895897   -1.33201985222256
C         3.05322822524530   -0.36672118473311   -0.08129942939846
C         4.00130422127553   -1.48615712394850   -0.57380069383857
C         4.74867482652974   -0.98147244343376   -1.84543293037946
C         4.01583515541410   -1.19647615797888   -3.15962837719227
N         3.60435579288151   -1.49840680120819   -4.31269505726760
C         6.17112443439344   -1.32537024756377   -2.00833714279530
C         6.91351246624178   -1.97408245631920   -2.97738981094976
N         6.50375203072616   -2.34519365639222   -4.20276872972091
N         8.22669668745042   -2.00703080267891   -2.66282833746382
C         8.48754374831907   -1.52357199114231   -1.47078933665364
S         7.12200876442291   -0.93638328467080   -0.61806468738668
H         2.61562216567938    1.71814401552312    2.75194655957100
H         2.40103140670118   -0.02020702351551    2.60078579432412
H         1.41182151299163    1.13225039085782    1.63674774469800
H         4.36180150902889    0.49433734266372    1.41241512546432
H         4.05972615727766    2.71958644097426    1.02922591599142
H         2.57328198717374    2.60772626808161    0.14534261838476
H         5.39175306964650    2.62691560774243   -0.98643679987029
H         3.81580843977148    2.79865853950201   -1.90565652970559
H         4.93566490262203    0.42916745535106   -0.46257033539792
H         2.06942785440485   -0.82607899778429    0.08359850165171
H         3.38603528561754   -2.38251103115165   -0.70078350656390
H         4.64170868995455   -1.76210243528071    0.27326714172542
H         5.58054989225518   -2.11179616088322   -4.55843743956422
H         7.21397532573356   -2.70364889683549   -4.83472976163624
H         9.39586588581924   -1.53692554318317   -0.88328279645728
