32
 energy: -49.166297998776 gnorm: 0.293462667273 xtb: 6.4.1 (79825abcba525fcdf90b791dcacef51065a7a4e7)
C         2.92906760222914   -0.08161340473946    2.03600097132562
C         3.53941815530003    0.23337336406650    0.64478862170427
C         3.75549176468435    1.76574661285973    0.42097693107632
C         4.73131115134080    2.22561274681310   -0.73903394185993
C         4.58488463155529    0.82929268781752   -1.57859774915476
O         3.11813233313388    0.75751732033208   -1.52754077192343
C         2.97734423144516   -0.37850392549098   -0.63065329998798
C         3.93721384205302   -1.41375376099705   -1.26425453078047
C         4.70327809855478   -0.65336529864558   -2.38909804538689
C         3.94181068007463   -0.62524599358496   -3.70430406128623
N         3.46535383712464   -0.50087477475019   -4.86514892037957
C         6.11502142849809   -1.06235443184499   -2.47783940839274
C         6.49686785203052   -2.27052131114851   -1.92506755499614
N         6.02946398202479   -3.52416396869627   -2.05581294141071
N         7.68691656530809   -2.24344914219171   -1.28668014874130
C         8.06360554610515   -1.02719496206916   -0.96799256785120
S         7.21991607616912    0.13588250054090   -1.90183119963095
H         3.24876139064405    0.47764232479176    2.92431788805885
H         3.22531509448751   -1.11238334485770    2.26939148633552
H         1.85255424235206   -0.27587475014815    2.13885304330481
H         4.51136129915217   -0.19331677555572    0.89261729891438
H         4.08192250437589    2.09243919864546    1.41307139881474
H         2.75977942080693    2.20130055010472    0.22021344579010
H         5.79592389742065    2.34132642747709   -0.50041657992549
H         4.45376304501007    3.15361935658324   -1.26441505666105
H         5.05659343458162    0.32634738974624   -0.71110012525220
H         1.93725923345523   -0.72858311625355   -0.67226882515548
H         3.42627761281289   -2.21261180477077   -1.81097276226235
H         4.56989388554204   -2.04619965263415   -0.62902561923017
H         5.50521398583878   -3.78780968134334   -2.88583082955348
H         6.71305869213499   -4.14807676078993   -1.63663142840707
H         8.93056819910338   -0.72543658712427   -0.39553383649516
