32
 energy: -49.228928817634 gnorm: 0.284187367862 xtb: 6.4.1 (79825abcba525fcdf90b791dcacef51065a7a4e7)
C         2.26792192309979    1.44358732446912    1.71933543152550
C         3.41163302335089    1.05614227626697    0.74515499479426
C         3.47316993133923    2.27795507486729   -0.22866939746340
C         4.10755334905079    2.09736774372676   -1.66890252400990
C         4.31194320334656    0.47913927189092   -1.54408570733662
O         2.89927992997757    0.16306280614013   -1.29189734296267
C         3.15000034067247   -0.28254491355221    0.06947906894755
C         4.23840078361328   -1.36151688053698   -0.14440496595809
C         4.80802073699193   -1.14009527515330   -1.57856798629740
C         4.03385298537462   -1.88806019991768   -2.65169565704099
N         3.57946376317969   -2.49235005589337   -3.66085587334086
C         6.23909682344117   -1.43066893687603   -1.76765665684535
C         7.02615049855360   -1.04020005133514   -2.83494816066743
N         6.66310050727877   -0.06296134776752   -3.68370010039311
N         8.28625312734459   -1.52477088994568   -2.79228932158684
C         8.49486466188967   -2.31629769316046   -1.76627902096180
S         7.13620292347853   -2.48889706668621   -0.73629677229158
H         2.52383620108090    2.44049565362022    2.09980842920008
H         2.03225837961861    0.68098895095946    2.47274554174627
H         1.29301152185926    1.47428068904236    1.21356407828083
H         4.28429132185413    1.06846412605075    1.39820374340266
H         3.97024371048710    3.13643364007408    0.23335735316690
H         2.46285252533673    2.70053000019981   -0.37748288210150
H         5.04142837423245    2.64447750579884   -1.84855927062557
H         3.34196166463481    2.26283759032552   -2.44397906945347
H         4.97315620153387    0.65797756890463   -0.67297748899317
H         2.23354798622810   -0.67205672327955    0.53257703752452
H         3.82703703890220   -2.37570749196454   -0.12629136892449
H         5.12642883416757   -1.23695990535705    0.48779703111474
H         5.70337606268937    0.04648200489779   -4.00028808988581
H         7.33582100544915    0.09136105477910   -4.42929634778549
H         9.38707635188231   -2.86278406915788   -1.49113851536378
