32
 energy: -49.225344777149 gnorm: 0.286226510062 xtb: 6.4.1 (79825abcba525fcdf90b791dcacef51065a7a4e7)
C         2.08313463204987    0.89440849281158    1.81868347526898
C         3.32407640166833    0.76180231428304    0.89689423793974
C         3.46864430957694    2.15767585946891    0.20726794501563
C         4.34962984901379    2.28825642493257   -1.10274685140225
C         4.46621181110876    0.66893691047783   -1.30332307598170
O         3.01745312223154    0.42923262985136   -1.35586782525118
C         3.05695658447716   -0.33793427295630   -0.12109370769952
C         4.13640137891786   -1.39130964108029   -0.46713082704626
C         4.84320681544954   -0.91446882583352   -1.77226182286815
C         4.03586713975202   -1.17401707638337   -3.03370052929590
N         3.27077763014223   -1.23915401000752   -4.03391819092535
C         6.27591209570624   -1.19144406756476   -1.96925589380912
C         6.91809180659527   -1.93935122306693   -2.93841569096500
N         6.43634066079713   -2.25500901224764   -4.15309945207275
N         8.23615281780279   -2.19466524383186   -2.79003361974934
C         8.65300109816596   -1.80517748762557   -1.60797296483338
S         7.43993029841445   -0.99810514799381   -0.70591466912943
H         2.24221450132897    1.44359095880309    2.75525715133178
H         1.81381539325842   -0.13291587619861    2.09579747438150
H         1.22420505272821    1.28274174578614    1.25420646262972
H         4.08469337704667    0.51531731991668    1.63774777831924
H         3.91365893720616    2.79513541315045    0.97742624561491
H         2.44868877580826    2.54702148276818    0.03534651527226
H         5.32435579524436    2.77048049969966   -0.95749713937024
H         3.74138854986495    2.66570332637925   -1.94050034304208
H         4.95700535179341    0.46780466531609   -0.33034681132555
H         2.13479584138785   -0.90526231334490    0.06281539616911
H         3.70468485019731   -2.38438121548157   -0.62700739455714
H         4.96303222522754   -1.46383040253031    0.25065034436288
H         5.42269053776962   -2.32413730973958   -4.12129494833002
H         6.87622284112457   -3.06725131059226   -4.57624027395000
H         9.68214757931594   -1.90304870219264   -1.28911546708717
