32
 energy: -49.217129519539 gnorm: 0.291092669716 xtb: 6.4.1 (79825abcba525fcdf90b791dcacef51065a7a4e7)
C         2.46862394787237    1.43769724764138    1.81101004753425
C         3.39965021810940    1.12099892746462    0.61096482847403
C         3.33926291709649    2.28554795084128   -0.43072908048233
C         3.97537212065508    1.97618183299385   -1.84811514332005
C         4.18876823052647    0.36967720391837   -1.62535333488928
O         2.79056234896129    0.04338770964477   -1.31282125179056
C         3.03789536597962   -0.26176445971494    0.08735060623105
C         4.19604727485045   -1.27709993854070   -0.06204963287829
C         4.80054297065981   -1.20465143332120   -1.49719915747904
C         4.03835927721383   -1.99544134868900   -2.54796915304112
N         3.66382252403392   -2.53135751147270   -3.62618816495964
C         6.23605639321444   -1.42737252460345   -1.73774620024045
C         7.07737638925045   -0.80936240929218   -2.64398830001553
N         6.93972272729954    0.25712668817377   -3.45073057689266
N         8.31992276714932   -1.33757733612407   -2.68341930646206
C         8.44963900216969   -2.31519435314986   -1.81729618641638
S         7.05282850788687   -2.70187763128503   -0.90295916780714
H         2.77837367542893    2.37221279064371    2.29558598830292
H         2.70879317006785    0.58658006846878    2.46111670953151
H         1.38734587644914    1.47670350167808    1.61992556626724
H         4.39820596700077    1.07325417741798    1.04543445786863
H         3.76561196081985    3.18528621834208    0.02340091197017
H         2.28006054955996    2.57514556754445   -0.55594827614731
H         4.81851745686894    2.64350077180843   -2.06610499406400
H         3.21240664066252    2.16696955611972   -2.61995597394671
H         4.88800968135020    0.69673974228962   -0.83030190157286
H         2.25088514304827   -0.84052619301751    0.58906154193336
H         3.97368305041443   -2.30950236567845    0.22575273696945
H         4.98831627955842   -0.95395514703389    0.62473628098192
H         5.96595630487399    0.50251932970407   -3.60833204245139
H         7.47845517658647    0.13606171938161   -4.30360375564737
H         9.42896290487861   -2.72117533198603   -1.60166803954026
