32
 energy: -49.233806465869 gnorm: 0.279044611395 xtb: 6.4.1 (79825abcba525fcdf90b791dcacef51065a7a4e7)
C         2.32750313917983    1.16578658233760    1.96131401893917
C         3.38307396435087    0.93772604976892    0.84732349096075
C         3.48453228259041    2.20160373892285   -0.06769926990024
C         4.31527575304728    2.27606316142430   -1.41441625982203
C         4.36807952480166    0.64255483440135   -1.48427435173402
O         2.93473282292946    0.34364065112818   -1.36062821101576
C         3.08296331461989   -0.25830285400408   -0.04515702590682
C         4.10258644041025   -1.37617235373158   -0.36962409426558
C         4.80375967477557   -0.97947564978588   -1.70427978848899
C         4.09948097508165   -1.50119266805004   -2.94613047083660
N         3.51929047981588   -1.99052491868737   -3.95309277559327
C         6.22376206305675   -1.34413016676795   -1.84134421986695
C         6.98338037548209   -1.45327473907130   -2.99116945910640
N         6.61590695313405   -0.99948169552183   -4.20204344036533
N         8.22018512785906   -1.96958513198421   -2.82316678215726
C         8.41701754664863   -2.27295933892877   -1.56144110504117
S         7.18149551637534   -1.79465730265786   -0.47455188675955
H         2.54425833970742    2.10489241795688    2.48588570023583
H         2.38097245263390    0.34886609718549    2.69241068348849
H         1.28754616075269    1.20451569585708    1.60891286462502
H         4.28925303009881    0.74714974724163    1.42236886111902
H         3.85280711721772    3.00101843592625    0.58256705817746
H         2.45275065225940    2.41429548047751   -0.40183273704752
H         5.32443826406722    2.67502486058983   -1.25271036835761
H         3.85191632972660    2.78054997264665   -2.27757652735755
H         4.83919767097707    0.64868175707016   -0.48126615322494
H         2.13789543429635   -0.67244622768716    0.33086965710890
H         3.59757948695920   -2.34190462946141   -0.47189812734885
H         4.92378380787346   -1.43014203171855    0.35598584418702
H         5.61305431344851   -0.91812251889940   -4.34676415398113
H         7.09620547244548   -1.47056654786006   -4.96340697502641
H         9.36060288472581   -2.67332357301136   -1.21539696095697
