32
 energy: -49.227248563196 gnorm: 0.289690187369 xtb: 6.4.1 (79825abcba525fcdf90b791dcacef51065a7a4e7)
C         2.45655435098109    1.44921460290112    1.71847305633448
C         3.56376401432043    0.96521661712675    0.74530864105814
C         3.75735687238260    2.22403320749561   -0.16180207352535
C         4.34281930782121    1.94889579749243   -1.60778226239567
C         4.36017466433372    0.31350494208076   -1.57294839944028
O         2.91221182304501    0.15769471451449   -1.37737843530587
C         3.11929662056023   -0.28144371850048   -0.00659543986367
C         3.98620729112445   -1.54170004686844   -0.24060885309673
C         4.70536362346060   -1.34441596974185   -1.60962716239346
C         4.02014725064607   -1.84582205430818   -2.87036531996480
N         3.31100887238513   -2.00710437436353   -3.90048711610228
C         6.13899260838341   -1.63533899392122   -1.77766905682501
C         6.88890320393901   -1.14661651819233   -2.83114664827283
N         6.38301396128457   -0.54344818996144   -3.92084599951892
N         8.22509515890719   -1.25591533354445   -2.66642828969526
C         8.50637682256603   -1.89560959738510   -1.55539162702971
S         7.17332798025051   -2.26444660123998   -0.54368230843332
H         2.67258560920086    2.48121559147355    2.02241793777919
H         2.33589896992370    0.81931073134230    2.60919398371378
H         1.54464781818066    1.40928430194691    1.10689388603518
H         4.47260722873080    0.84231055422190    1.33442247702889
H         4.44140867685098    2.91006041196702    0.34709507757957
H         2.79260526999771    2.73995662795241   -0.31843428980886
H         5.37038028764143    2.29507779805722   -1.77512819747732
H         3.60432608164403    2.28763114039500   -2.35218851755583
H         4.94916081793138    0.38006992523764   -0.63663664091423
H         2.12096723063964   -0.61541800336358    0.30623630576767
H         3.33748496419416   -2.42309653526317   -0.26135477947085
H         4.76209918542544   -1.62098865859452    0.53107288234824
H         5.51647713986268   -0.02058410916497   -3.82595709972539
H         7.04916419603286   -0.01484658873148   -4.47681924355936
H         9.50135033681546   -2.09253240435923   -1.17904009991445
