32
 energy: -49.229442438326 gnorm: 0.282334639864 xtb: 6.4.1 (79825abcba525fcdf90b791dcacef51065a7a4e7)
C         2.46654648731568    1.38869301127672    1.91056983221658
C         3.50773086163965    1.06265823925913    0.80745936876603
C         3.54556303215654    2.24021108050043   -0.22058989443374
C         4.15857781611492    2.13052247274935   -1.67712923575282
C         4.34529038164295    0.51052638046781   -1.54763435382000
O         2.91508729566476    0.31260286217826   -1.27474931807564
C         3.11612625240237   -0.20881536104342    0.06781504700360
C         4.05981680949496   -1.38720756364540   -0.27186473933330
C         4.71861514948730   -1.13769152567641   -1.66256401835469
C         4.03427086561809   -1.81619958506402   -2.83801710516581
N         3.66574634047285   -2.48066359983825   -3.84435571137557
C         6.14638964942045   -1.46926690679744   -1.80286408771238
C         6.98632705159258   -1.09804765032424   -2.83617528379464
N         6.70893613656638   -0.32585741742159   -3.90104953201371
N         8.25602707999695   -1.54751281029036   -2.73453756706026
C         8.41815346145510   -2.21851734871391   -1.61820493753271
S         7.05585420133487   -2.28650030652688   -0.58083579362834
H         2.59006882822721    2.32208446854774    2.47413052487093
H         2.41812117126314    0.55556461026454    2.62350211188309
H         1.50217385038968    1.40621362315465    1.38438024622808
H         4.47480601008246    0.98559513616229    1.30443415456978
H         3.91344365753380    3.10145796578904    0.34549680936282
H         2.49057846743644    2.49609572866092   -0.42792271473367
H         5.07824266460284    2.69661567900856   -1.87073514903691
H         3.39543130390972    2.28452622925899   -2.45696562597273
H         5.11207550133409    0.58643281020476   -0.75120853438094
H         2.15596931358817   -0.64357505153966    0.37627373428532
H         3.48850120202319   -2.32000232633113   -0.31215411849212
H         4.81372213272784   -1.62180168921619    0.48996199759474
H         5.76172793146276   -0.23532705085043   -4.25864942360244
H         7.42127036679949   -0.43583552672954   -4.61712690152485
H         9.32202575224133   -2.68897122953065   -1.25477765906430
