32
 energy: -49.232390236885 gnorm: 0.279518267453 xtb: 6.4.1 (79825abcba525fcdf90b791dcacef51065a7a4e7)
C         2.38941279441869    0.76181507079563    2.03473497052148
C         3.44595524286501    0.61472559717428    0.90810325962699
C         3.75299309628282    2.03008753167332    0.31867505536613
C         4.58841484271315    2.17415327572375   -1.01947334391647
C         4.41608695002779    0.58951642877714   -1.38723281368452
O         2.94846401800007    0.51742733785732   -1.38460234022708
C         2.93008173290761   -0.30776895870940   -0.18731963998075
C         3.81935545782053   -1.47300508308469   -0.68326260832334
C         4.69432501487040   -1.00524913080307   -1.88573948395976
C         3.98191125017560   -1.12433833443928   -3.22315289375115
N         3.51737679303549   -1.31118717472009   -4.38044948025340
C         6.11898337348959   -1.37510612045441   -1.92722111493594
C         6.89085598823097   -2.03722800025230   -2.86361733038185
N         6.49663089474683   -2.68962361818209   -3.97093262694356
N         8.21955026233480   -1.97798815443005   -2.62792795868531
C         8.50997414554694   -1.28116739584069   -1.55423089221879
S         7.14110550430189   -0.66640472700014   -0.72665539706948
H         2.71452490831065    1.59953733811451    2.66449806307901
H         2.43485591587025   -0.17639004112445    2.60256106220981
H         1.37501500102709    1.01679487245524    1.69831343062430
H         4.30972911624665    0.26054736178811    1.47078387677264
H         4.28876948290172    2.58401268898979    1.09562234619851
H         2.77623749277493    2.50185231314839    0.10691395017725
H         5.66297857978922    2.38344269589002   -0.94709293222526
H         4.12679896796850    2.91577301676903   -1.69116188242791
H         4.88483077581576    0.38472136736643   -0.40420000541095
H         1.93744265528732   -0.75108363062664   -0.03174373828057
H         3.14589687347917   -2.26003008788484   -1.03706482320052
H         4.43333979326333   -1.87462044886772    0.13252900256541
H         5.56059989572741   -2.51493617323480   -4.32675151170277
H         7.26085227837114   -3.12524496538162   -4.47934363542247
H         9.49516944159031   -1.27972839057232   -1.10726387303573
