32
 energy: -49.226310641053 gnorm: 0.278107024177 xtb: 6.4.1 (79825abcba525fcdf90b791dcacef51065a7a4e7)
C         2.79101437992851    1.30630136814857    1.97691437396657
C         3.57306665867549    1.01543383933364    0.66885987114642
C         3.53341120532177    2.23114846549561   -0.31369427334348
C         4.25139131673065    2.02449432375284   -1.71052074485126
C         4.28820477275763    0.39081806483881   -1.63459644448636
O         2.86066046232305    0.13228162063713   -1.40136485067322
C         3.08860915663816   -0.25368708763959   -0.01794869871409
C         3.98751035920408   -1.48401892809663   -0.28776827138780
C         4.66500260411073   -1.26014697768085   -1.67384315874050
C         3.93027842397383   -1.94984894888743   -2.81177189161507
N         3.50474840104415   -2.17317991974517   -3.97757102399017
C         6.11592072882219   -1.49759402031428   -1.75521785440066
C         6.94533816616997   -1.09291491921669   -2.78445647083510
N         6.52454005347211   -0.42846261780605   -3.87469163788520
N         8.26739949724082   -1.30178621063901   -2.60275911782127
C         8.44544287251086   -1.97782012187885   -1.49189940568496
S         7.06554579275182   -2.22216804416906   -0.50559628824046
H         3.11200509815150    2.20866296206627    2.51243892833334
H         2.81684177650336    0.39738585137364    2.59167116181019
H         1.73906974417071    1.47358438435261    1.70742242475254
H         4.59384026911527    0.89525419353378    1.03181316277374
H         4.03039606776971    3.03574001088727    0.23691902059321
H         2.47923697093386    2.45915223253318   -0.55491460434398
H         5.24310771047076    2.43874915122032   -1.93101958032806
H         3.57672898043304    2.23930691211470   -2.55487898411174
H         4.96511141829818    0.50424695216858   -0.76456967770148
H         2.17846563410938   -0.62966756344603    0.46820101890203
H         3.31980292394072   -2.35043427569746   -0.32804298734617
H         4.71426153358942   -1.55025108719219    0.53152022993938
H         5.53643028755251   -0.36160063039766   -4.10370119249774
H         7.17632928423612    0.05717239017919   -4.48429107114374
H         9.43052685692395   -2.06498043189369   -1.05326062133638
