32
 energy: -49.181762358777 gnorm: 0.306122914212 xtb: 6.4.1 (79825abcba525fcdf90b791dcacef51065a7a4e7)
C         1.70150853567805    0.90329470798467    1.46707517713498
C         3.12622230229394    0.64172129867128    0.91120980989147
C         3.56650319661279    2.07310565754209    0.46150011707618
C         4.34665375780004    2.34233024768234   -0.89061259658073
C         4.43868546093647    0.75723280566291   -1.28433092235406
O         3.00970152101350    0.42542581943088   -1.36817512069038
C         3.07930578699081   -0.41499118555492   -0.18342738206459
C         4.21337131371341   -1.44464320052672   -0.40309651994002
C         4.96194081096949   -0.81867469063604   -1.61887821734997
C         4.03084012392241   -1.16090489162104   -2.77053801687954
N         3.31628173572921   -1.90150813947392   -3.49920344756434
C         6.35540760474394   -1.11979037882887   -1.98731544435225
C         6.85121457797936   -1.97291570721855   -2.95550096635598
N         6.30822670163480   -2.69307226366321   -3.95235568309656
N         8.12798595376193   -2.35359406204613   -2.73318101797832
C         8.73935715677194   -1.54058743481059   -1.90373778941740
S         7.66769266745440   -0.52823768932910   -1.03006799351329
H         1.88420776595619    1.36713006477788    2.44460051693040
H         1.17238106569204   -0.02381332115288    1.72244785095071
H         1.22807464081927    1.63899570189986    0.80239372698078
H         3.83834819209401    0.29018866031285    1.65784126230023
H         3.96586550552203    2.51439972427559    1.37981694741344
H         2.71753655883988    2.75584141018389    0.27553285220533
H         5.37244654602737    2.72281549996955   -0.80870815769698
H         3.78169673817206    2.89472574126601   -1.65868637890545
H         4.99652066535520    0.72097886950563   -0.32750239313789
H         2.13751536046498   -0.97705441615798   -0.12703750754127
H         3.90371205079349   -2.45552147845776   -0.68658740108498
H         4.97666269508110   -1.66299251711633    0.35419963595679
H         5.37502315935945   -2.49110127892683   -4.30109008029671
H         6.90310693479101   -3.15842341258763   -4.63194956818302
H         9.75466422006725   -1.85471309327875   -1.70157944144284
