32
 energy: -49.227638300070 gnorm: 0.289033930666 xtb: 6.4.1 (79825abcba525fcdf90b791dcacef51065a7a4e7)
C         2.11200848964036    0.96074792985804    1.85878659118852
C         3.29138172878848    0.66260373399986    0.89576786218975
C         3.52996116403614    2.06360086426969    0.24366805963759
C         4.55688192949189    2.20438213942793   -0.95422172963561
C         4.48013148760239    0.61245114005710   -1.32284475847079
O         3.01844975953050    0.46287212594563   -1.33812461126781
C         2.98749047717560   -0.39019500623446   -0.16080108201216
C         3.96615761966402   -1.51430724767539   -0.57688365713890
C         4.81748294580463   -0.98580641039009   -1.77114077446799
C         3.97677607836432   -1.12354059794659   -3.02996225567580
N         3.35372774787564   -1.35559775545586   -4.10141006428999
C         6.24018159445390   -1.34255987824910   -1.90084000397823
C         6.89951506525187   -1.97135078453807   -2.94051879058330
N         6.35914240662833   -2.52196734451098   -4.04142725081411
N         8.23200884044617   -2.09775267548240   -2.75894175197641
C         8.66043212372967   -1.49280076026617   -1.67579020957341
S         7.39446669455360   -0.86687124390322   -0.70514121564477
H         2.33431204279974    1.71341688893266    2.62569506334212
H         1.93593367507398    0.03056451936090    2.41419352521268
H         1.29482357190650    1.29083359742739    1.20270024188764
H         4.18054764208164    0.42892555287129    1.48137480413071
H         4.01580851930458    2.73410600720985    0.95914811562693
H         2.59769263595121    2.51345873737449   -0.14357807572750
H         5.53913901309414    2.56083193497578   -0.61979270296132
H         4.18176094005816    2.75357391590889   -1.83281560119329
H         4.96325810245301    0.40570139742480   -0.34721239320597
H         1.95117160676405   -0.74291145609468   -0.07306053520853
H         3.51962663195315   -2.46923968000495   -0.87157834167578
H         4.59304425928260   -1.74125545639157    0.29449185047528
H         5.39538079269973   -2.27191324749794   -4.24615467223899
H         6.98988199790250   -2.63676611642696   -4.82963461436771
H         9.67449522806879   -1.44236100763714   -1.30226215150732
