32
 energy: -49.230739870045 gnorm: 0.281870083757 xtb: 6.4.1 (79825abcba525fcdf90b791dcacef51065a7a4e7)
C         2.42614815400110    1.01814626483681    1.93608474109358
C         3.43999314331649    0.79720621350090    0.78260301067462
C         3.70241994835767    2.17423707441145    0.08987980678877
C         4.53274423601794    2.18750236156955   -1.25908690154214
C         4.45029880665803    0.56481782471874   -1.44912770697009
O         2.99252418170466    0.38292154560005   -1.41866929447557
C         2.99431053024167   -0.32266553794400   -0.14708902647137
C         3.97403697454903   -1.47338537827840   -0.47953806100531
C         4.71390622608942   -1.07291184434754   -1.79199089561461
C         3.83865155550413   -1.40902258253028   -2.98838091584400
N         3.07889311468149   -1.72258638556455   -3.94466800501733
C         6.13498331533951   -1.43085867686507   -1.93544937015794
C         6.94043393128968   -1.76154318959194   -3.00919405624028
N         6.67088258010547   -1.81211974014537   -4.32523536086986
N         8.24474858511800   -1.85478399820790   -2.67073171950764
C         8.51332029340126   -1.67009882958826   -1.39931864058201
S         7.10941127049330   -1.22703650374095   -0.52219212374686
H         2.79978405144769    1.64097079179277    2.75861976227575
H         2.09174611623553    0.07912630866505    2.39558139892900
H         1.47114171602226    1.48790066738740    1.66315519024472
H         4.33631411669319    0.40069765441704    1.25962154298361
H         4.19376022930554    2.78353919037959    0.85464916320933
H         2.71794630921973    2.64178098175435   -0.09361578360306
H         5.52446585006545    2.61821177785630   -1.07279185740720
H         3.99942154010525    2.76749234934590   -2.02943297070114
H         4.93665459614401    0.37766677654260   -0.47114620078337
H         1.97565236768414   -0.66011951780886    0.08641570088919
H         3.50774515260515   -2.45858611060874   -0.57994863277530
H         4.70705102372354   -1.53210162205568    0.33472874486000
H         5.72288694459786   -1.68361335510894   -4.66884443589841
H         7.46985871509924   -2.18930468515639   -4.82688333470836
H         9.49844245641628   -1.74550426211307   -0.95859230571256
