32
 energy: -49.229619099892 gnorm: 0.284016972642 xtb: 6.4.1 (79825abcba525fcdf90b791dcacef51065a7a4e7)
C         2.12262090620653    0.99630071572122    1.82877693942670
C         3.32039527197670    0.79416843644390    0.86353324954592
C         3.59684911697374    2.21201571272054    0.26501037673547
C         4.52233793662769    2.25886989847451   -1.01974668145409
C         4.51818285683648    0.65231177962480   -1.32792131512085
O         3.06404824192404    0.44796066744607   -1.38134393944271
C         3.03751563505872   -0.31281133114289   -0.14227384876716
C         3.99557503747440   -1.45886874977642   -0.54627507859216
C         4.77412050414175   -0.95443310621016   -1.79916360047251
C         3.94945386392432   -1.29030683641468   -3.03103373141041
N         3.22552124976641   -1.78522002007566   -3.93713673735148
C         6.19951996740547   -1.29639368601348   -1.93868313952027
C         6.92000040229894   -1.78888512273917   -3.01077955809454
N         6.55455817004398   -2.07703748410157   -4.27196980231976
N         8.20909762890911   -2.11645366309201   -2.77537668396859
C         8.58346010389713   -1.70515834553937   -1.58650348062280
S         7.30702175904292   -1.08009698424873   -0.62910119138610
H         2.29388008968310    1.90524922186951    2.41916743876844
H         1.98785793904519    0.26856365843654    2.63930645605803
H         1.15316389110879    1.09896510376869    1.32201254224749
H         4.14778061161610    0.51602628298940    1.51639421978690
H         4.15830499006722    2.78481977663511    1.00945602005727
H         2.62728394098812    2.63351103737916   -0.05707865440810
H         5.50571200162267    2.66732514515532   -0.75542118975501
H         4.10223224713815    2.79430928293518   -1.88638987559202
H         5.06441700715712    0.46052050218069   -0.38300880609339
H         2.01047736324234   -0.69288465996233   -0.05980717203438
H         3.39858039632197   -2.35893239254484   -0.72407740472676
H         4.73003267992738   -1.71341030478347    0.22804281035246
H         5.56720610927119   -2.15412898749467   -4.50103229067013
H         7.13742276099844   -2.79248491868465   -4.69704141391023
H         9.58104512589265   -1.78158709619963   -1.17495259798734
