32
 energy: -49.224620399414 gnorm: 0.283126510869 xtb: 6.4.1 (79825abcba525fcdf90b791dcacef51065a7a4e7)
C         2.04508170864639    0.93085421592327    1.78243927694420
C         3.30903860902998    0.72251354693352    0.90709740536691
C         3.57360509595053    2.09277585702690    0.20187897512812
C         4.25650811460561    2.27277949080083   -1.21606592289110
C         4.45124463199871    0.65133058266906   -1.31092893037718
O         3.00981818862569    0.36600613218539   -1.31015647234818
C         3.03575137850345   -0.40552587547018   -0.07774479904730
C         4.17691674082024   -1.39620698023126   -0.41066368059781
C         4.88384587568161   -0.93418558758312   -1.72104737891614
C         4.03417151018761   -1.12656721627624   -2.96661272981454
N         3.37132432014778   -1.19745484816995   -4.03696253128892
C         6.29315117152067   -1.31521070827160   -1.91299737905860
C         6.93113379089691   -1.84253006732993   -3.02022051488648
N         6.31800787564772   -2.24100437800565   -4.14826106219717
N         8.22805058155376   -2.16167602869477   -2.81862683951159
C         8.62837430063611   -1.89301914914308   -1.59785044974376
S         7.45945311753592   -1.05842275060597   -0.66313775803907
H         2.08741210741951    1.77253743051677    2.48518783807651
H         1.83437943914131   -0.00043785332020    2.32375250911759
H         1.20720456813419    1.11414640344071    1.09573489584573
H         4.06663305035523    0.43067814760411    1.63444860451235
H         4.06613509211663    2.77511750691251    0.90142210134096
H         2.55643112244422    2.52411450868239    0.17430435469702
H         5.22736615007294    2.76252440712301   -1.07007688195202
H         3.58280724826640    2.76268934610516   -1.93743269840579
H         4.92874007131590    0.58998403374928   -0.31280569395157
H         2.09259715312898   -0.90844075931816    0.17444724187810
H         3.72943570102169   -2.38876034540829   -0.52348817293124
H         5.04916787295973   -1.52284305950393    0.24273427940948
H         5.49785951467740   -1.71992965122707   -4.44678176580435
H         6.88071777015091   -2.78323702488066   -4.79758637931705
H         9.66831747399372   -1.89352789936382   -1.29967383079814
