32
 energy: -49.230495723940 gnorm: 0.278271993896 xtb: 6.4.1 (79825abcba525fcdf90b791dcacef51065a7a4e7)
C         2.11846446518356    1.13067024111800    1.78167392569735
C         3.33248042451004    0.86645532648775    0.85238817875032
C         3.68227653977977    2.22612997005535    0.16400253410925
C         4.52860916533899    2.26873065170877   -1.17436655988007
C         4.52230104700148    0.65367164907100   -1.43429436180523
O         3.06873992362698    0.43859716264019   -1.43917839203933
C         3.01086972129579   -0.23263337089723   -0.15042965370151
C         4.04603333354823   -1.35999508811176   -0.37853987070181
C         4.80907061191613   -0.99629220667133   -1.68843006616858
C         3.97321512355522   -1.50379639539437   -2.85212046608476
N         3.28360499877961   -2.05836761940843   -3.75041261037571
C         6.19199164890144   -1.46244663493109   -1.88437853457322
C         6.88193151645215   -1.67220089745594   -3.06379225162831
N         6.48314092733586   -1.54134759177212   -4.34090779484562
N         8.20743276296299   -1.83434829337818   -2.86071103178396
C         8.56491219456327   -1.86551002265324   -1.59818657936491
S         7.26529811678038   -1.53510751306615   -0.53120338995273
H         2.18478826160206    1.96802704938875    2.48772829016189
H         1.87234946980752    0.22179476162621    2.34567140021724
H         1.18376634416069    1.33656440952565    1.24209626778778
H         4.20604536059189    0.60585665931620    1.44999142591806
H         4.09889228668812    2.88538173637016    0.93169709248249
H         2.70478597841123    2.63290059805353   -0.15302450115645
H         5.54999192827308    2.64518629527434   -1.03730233803541
H         3.99798043106965    2.84414910763954   -1.94998327732484
H         4.97225420394137    0.60465951726489   -0.42278298572144
H         2.06237308931694   -0.72261082885983    0.10713651071704
H         3.53700918273301   -2.30572265238204   -0.58978527366628
H         4.75356927452393   -1.54255413994688    0.43990542666433
H         5.53587161753331   -1.87346479208471   -4.50108218874484
H         7.23430831346650   -1.81169277459693   -4.96935276299406
H         9.57292936000015   -1.91266280784910   -1.20822585536299
