32
 energy: -49.230958030065 gnorm: 0.281742024573 xtb: 6.4.1 (79825abcba525fcdf90b791dcacef51065a7a4e7)
C         2.18647786706825    0.86599397559716    1.97840254475371
C         3.30202605901038    0.73269089333376    0.90835638196742
C         3.46802054015867    2.14175841572008    0.25114879903556
C         4.40453960006922    2.30343483202433   -1.01617845005081
C         4.50170151555897    0.70597160555737   -1.35483560066654
O         3.05564311929815    0.44783210978099   -1.39225148588562
C         3.02701717368432   -0.31913726419354   -0.15705464446639
C         4.03603535614925   -1.42117040367165   -0.55948188838619
C         4.83561824425136   -0.89646561205077   -1.79060742941671
C         4.03597343182733   -1.11724168130990   -3.06427000905958
N         3.44501945599972   -1.28420633610967   -4.16560390740970
C         6.24305110476508   -1.29456031278139   -1.96037116592635
C         6.91786249054308   -1.97553173367923   -2.95633206983918
N         6.39265236261664   -2.51116208721055   -4.07187457766569
N         8.24510970960032   -2.14680118993086   -2.77311386148803
C         8.60776036341124   -1.55653246506562   -1.65830538864955
S         7.32698638877403   -1.05819319767695   -0.63463957456079
H         2.40005782818502    1.70998220097139    2.64634379365909
H         2.17358896504183   -0.05002810206248    2.58293361024625
H         1.21223681773468    1.03853791211741    1.50061597841682
H         4.19775947102288    0.45835070766597    1.46563200655874
H         3.84838735524534    2.76944504347069    1.06285508340073
H         2.49221147533625    2.47364223747007   -0.14773223746649
H         5.40205429983930    2.75822043653939   -0.97301961404536
H         3.74403928300646    2.74322200436297   -1.78075750356098
H         4.98855479326664    0.50265672476061   -0.38033458016866
H         2.03460698825543   -0.75935334812247    0.00846249465501
H         3.59573782271988   -2.38414468648466   -0.83687951631134
H         4.71392579995904   -1.57088012531428    0.29012929959284
H         5.43968052755269   -2.31968484416218   -4.36929340823469
H         7.04720097205169   -2.61417319623558   -4.84209329125846
H         9.64293469774048   -1.61032897763576   -1.34860974294795
