32
 energy: -49.230278757496 gnorm: 0.278527115105 xtb: 6.4.1 (79825abcba525fcdf90b791dcacef51065a7a4e7)
C         2.74118390766744    1.36493253740008    1.94661426989560
C         3.59204978496348    0.94664294629582    0.71849483543050
C         3.67706208581287    2.19669135457215   -0.21697250212295
C         4.17536147010112    2.04688220287849   -1.71316116360723
C         4.19263102851188    0.41277389643843   -1.63961073858005
O         2.77990276668747    0.16552549696842   -1.31994229425868
C         3.02265304713619   -0.29091118170263    0.03928931158152
C         3.95714005166915   -1.48994841263738   -0.24982340468798
C         4.62468778960023   -1.22505759129616   -1.63348913268207
C         4.03484697613656   -1.85689732688888   -2.88379173986839
N         3.85937999415327   -2.42939775313202   -3.99351906877236
C         6.07557477345556   -1.43894707509941   -1.76518807249310
C         6.86858770851481   -1.07698971555330   -2.83810370320327
N         6.49841614632338   -0.39363327567392   -3.93499823972252
N         8.18235486183102   -1.31736067893798   -2.63629939283306
C         8.44307240327225   -1.88034463578773   -1.47966374662994
S         7.04640976558527   -2.14966755554785   -0.52393662200924
H         3.14111382947547    2.30603584915268    2.34468292016879
H         2.67837808816721    0.52471801117953    2.65004540231563
H         1.74166513182883    1.66360641651021    1.60171839358223
H         4.59722959760083    0.76319089107034    1.09812082276064
H         4.33125046864723    2.89621956308103    0.31239915709214
H         2.66576483021892    2.64068926422200   -0.17697250964575
H         5.22974523000201    2.35010168638539   -1.72097408850867
H         3.54121123513103    2.39559214276493   -2.54413012088895
H         4.87421926853584    0.42389707492912   -0.76592369735454
H         2.07941937276600   -0.71662148749010    0.40691013104125
H         3.34445342699673   -2.37248025658897   -0.45930723803343
H         4.67349653114547   -1.75811350722850    0.53675684452417
H         5.59644792917713   -0.63329747169310   -4.33785208687843
H         7.23320676959994   -0.20648443270531   -4.61126747993484
H         9.44002450323686   -2.17978867507766   -1.18502645294496
