32
 energy: -49.182528233502 gnorm: 0.310700516361 xtb: 6.4.1 (79825abcba525fcdf90b791dcacef51065a7a4e7)
C         1.77294103096411    1.01877248048693    1.80048629411002
C         2.99416771606335    0.61867920454280    0.93114918285984
C         3.57368041034101    1.94566454092811    0.34104562964173
C         4.78090920322591    2.01985200182059   -0.68190130504617
C         4.65882675777315    0.43243610901353   -1.05769982922258
O         3.22740492137012    0.41951944697964   -1.38934046923264
C         2.88111421696512   -0.37162731515657   -0.21932241498150
C         3.82582048853509   -1.53311653140045   -0.61049405081168
C         4.92315545411061   -1.13471794825935   -1.64366998564455
C         4.27950400475685   -1.13826161678581   -3.02065600415259
N         3.81831090611130   -1.04587377980515   -4.19061564094770
C         6.36089923486565   -1.45007966484176   -1.68374695146721
C         6.84352469701562   -2.33892665797670   -2.62611327623727
N         6.22595838211175   -3.32916966035866   -3.29335482255015
N         8.09206265651427   -1.98258313490656   -2.99848348842875
C         8.56883537893316   -0.90756639303854   -2.41559639281134
S         7.53987707720121   -0.28395769888775   -1.19536169961018
H         1.78234503766699    2.06494185210975    2.13142321244596
H         1.70080618230677    0.32373241549676    2.64691186632398
H         0.83384456036062    0.72156020183202    1.31370121509197
H         3.63155100953950    0.07096502875854    1.62534563846999
H         3.83228949208743    2.69252616448521    1.09791785506450
H         2.70209532949120    2.33715369224254   -0.21441091587905
H         5.69035227568672    2.24265609845835   -0.11006230732682
H         4.52444738761710    2.79375943489190   -1.42321714197299
H         4.84972051023201    0.08355604604762   -0.02336063569382
H         1.81801992757514   -0.63310347372446   -0.30606825851805
H         3.26257946935712   -2.40954315959780   -0.94630164080808
H         4.34334957092514   -1.82443366183000    0.31204895312311
H         5.30942451777150   -2.98994287849095   -3.57293967050532
H         6.82782001843884   -3.48423153777499   -4.09709634108999
H         9.55161140528381   -0.45550253362120   -2.40214626950010
