32
 energy: -49.227437906700 gnorm: 0.283448279931 xtb: 6.4.1 (79825abcba525fcdf90b791dcacef51065a7a4e7)
C         2.29932588506361    0.81492853513685    1.89741785339491
C         3.45855118533383    0.70819875112768    0.87173674848039
C         3.58854035850255    2.11485971064393    0.20139726887637
C         4.29432160042339    2.27413677843501   -1.20779726118362
C         4.50919663484373    0.66748443031767   -1.42805803739405
O         3.06163628696973    0.41512397609496   -1.43007715083379
C         3.05793046062115   -0.32091378240954   -0.17588123795038
C         4.04969386421984   -1.43328931826511   -0.59249669454520
C         4.81748279804561   -0.94187795785540   -1.85714409305704
C         3.95012813764194   -1.28962288893743   -3.05596001063062
N         3.04775141765384   -1.53625173660480   -3.90149570630158
C         6.23986883911979   -1.31857338039137   -1.91268575256275
C         6.99079570739415   -1.84072645926487   -2.94926454983885
N         6.53544985328154   -2.07471469906269   -4.19228116085569
N         8.30141602229338   -2.03660927476293   -2.68774661717716
C         8.53533737507709   -1.73473592349023   -1.43200624770659
S         7.24202897139272   -1.06832863626141   -0.52653929685635
H         2.55767053649380    1.63269954413821    2.58195174939758
H         2.06351250638731   -0.06417207874675    2.51084636656493
H         1.38644310737248    1.16484331379897    1.39601809531636
H         4.31608334221892    0.38081460304337    1.45962723486800
H         4.06742911721517    2.78903486979862    0.91811891662279
H         2.55894728633345    2.48010462685745    0.03409353186413
H         5.23075708781435    2.84517749449364   -1.18079199995419
H         3.72287864952287    2.75253864788035   -2.01948633620672
H         4.97889329658832    0.45726726627108   -0.44662587870878
H         2.02204702271113   -0.66030212579765   -0.04237035888298
H         3.60074425161432   -2.42822502538600   -0.67421580631250
H         4.81517642083927   -1.54245756900484    0.18590318760491
H         5.59692182685826   -1.82519644782388   -4.49258533678649
H         7.11050032535966   -2.46962238859246   -4.93096032258102
H         9.58007139604674   -1.77725278018934   -1.15431126601316
