32
 energy: -49.233172232135 gnorm: 0.284731882928 xtb: 6.4.1 (79825abcba525fcdf90b791dcacef51065a7a4e7)
C         2.32720238981111    1.24470739448517    1.82791540989243
C         3.43003461315855    0.99132056686481    0.76642001499577
C         3.56300610768093    2.29107192618012   -0.09259816949893
C         4.14141417622604    2.17619697367290   -1.56282720632195
C         4.33309493456438    0.55358370730667   -1.48281139264476
O         2.91395745563483    0.21526875106642   -1.30756118037011
C         3.11838913671321   -0.30640267931171    0.03439236137193
C         4.11595314907233   -1.44207121937966   -0.29676534235145
C         4.77644752590897   -1.07166866229834   -1.65943446124511
C         3.99288501259419   -1.74630063821439   -2.77356718739210
N         3.50482288493266   -2.38743153289495   -3.74350877298253
C         6.21792491375266   -1.32987607258306   -1.81318179606361
C         6.98316049473375   -1.19594162669159   -2.95664437706311
N         6.68770638024470   -0.64358455155852   -4.14609347938666
N         8.23927674032405   -1.66978721728055   -2.80788398515417
C         8.44753093924087   -2.23526486546461   -1.64186691347468
S         7.15588276387009   -2.02122408973240   -0.53622355578985
H         2.55235893986294    2.17958359006916    2.35648807603597
H         2.37152898386048    0.48092621302688    2.61493119086092
H         1.32973242814299    1.30159716456998    1.37073463092469
H         4.34492043902166    0.97248580529286    1.35869206491112
H         4.12359620610543    3.00575770867955    0.51772918689134
H         2.53105486019779    2.66872790695772   -0.21053402489292
H         5.13575135121900    2.63267014768023   -1.64439945802236
H         3.42023368047254    2.48994406003899   -2.33465361656605
H         4.89729759738566    0.64868016674086   -0.53378699402340
H         2.13825733768288   -0.68391975294893    0.35515179540264
H         3.59130309969178   -2.40254100058072   -0.31602547365253
H         4.92023380317180   -1.43738445053377    0.44949083878712
H         5.72781008876587   -0.50453315748407   -4.45029839782126
H         7.50296788982718   -0.60502386332151   -4.75119163826248
H         9.41952230089649   -2.57809478300077   -1.31309374045004
