32
 energy: -49.230518705294 gnorm: 0.279866168016 xtb: 6.4.1 (79825abcba525fcdf90b791dcacef51065a7a4e7)
C         2.29188699821588    0.96311766940326    1.90636275279411
C         3.38848865955663    0.77213085300485    0.82552738049031
C         3.75460384634735    2.15430984989641    0.19268605337086
C         4.58328527714061    2.14120261026998   -1.15729204051560
C         4.45729036819862    0.53316033633120   -1.42995152173868
O         2.99467431926118    0.39301751827143   -1.44528487802416
C         2.97860403669151   -0.30454081840626   -0.16938252519975
C         3.91410931530923   -1.48342620522332   -0.52938465438080
C         4.72928059430493   -1.09707888084204   -1.80082066531344
C         3.88401359818548   -1.34623238168462   -3.03930218821031
N         3.21995645988004   -1.81492141674276   -4.00335553148240
C         6.16467059601215   -1.40899321773075   -1.90344300762158
C         6.95417003137813   -1.68555402182989   -3.00400439086218
N         6.49727191870431   -2.03104508174325   -4.22017077735609
N         8.27308518197129   -1.74158388173579   -2.71797853244342
C         8.55117675883423   -1.43393966247381   -1.47268712080707
S         7.15645999680197   -1.22028285531093   -0.50019978513768
H         2.60072275909277    1.77919022525043    2.57173790464149
H         2.14871607318903    0.04596304147095    2.49206733193493
H         1.33600147499209    1.15154550970990    1.39845050590644
H         4.27078236665925    0.38957125700394    1.33871640423228
H         4.32577786581793    2.74371387327510    0.91649517518549
H         2.83130084299223    2.74720176239499    0.06059886182575
H         5.64714926635326    2.39732276449398   -1.07776790738742
H         4.09450756442317    2.80251817302195   -1.89078547815377
H         5.06303240275111    0.43736281827039   -0.50695925870761
H         1.99405069064139   -0.67878968234938    0.14151391270889
H         3.36833486504410   -2.37877559390504   -0.84340782906287
H         4.55142190426684   -1.78951930340089    0.30961909895207
H         5.55451669452270   -1.76882039353296   -4.49535728458997
H         7.24756933301178   -1.98190435970265   -4.90348696915903
H         9.57700662342171   -1.37814272501301   -1.13364265701122
