32
 energy: -49.228018109342 gnorm: 0.285810744667 xtb: 6.4.1 (79825abcba525fcdf90b791dcacef51065a7a4e7)
C         2.25780260349497    0.75545183469676    1.93534882266007
C         3.44533306764248    0.60641019802956    0.94804225609202
C         3.74946405093481    2.04715445916142    0.42201224523589
C         4.55996127093961    2.25190269556821   -0.92353522085094
C         4.44273020009124    0.67921061443443   -1.35817799525914
O         2.98336321680121    0.50909470890327   -1.33745572471617
C         3.01910065727606   -0.34506098941515   -0.16105716215315
C         3.86224011064713   -1.49938938321811   -0.75366515096167
C         4.71806471923218   -0.89846148384374   -1.90985193218113
C         4.20471847732268   -0.92569158739159   -3.34027997436662
N         3.72347760143851   -1.04359813937226   -4.49982531492501
C         6.12760610871200   -1.32360891429095   -1.93453139225504
C         6.82335334058361   -2.21143488026671   -2.73373813508896
N         6.28943568311037   -3.16005347169762   -3.52255707970797
N         8.15813679749296   -2.23278602490045   -2.52786303727950
C         8.51958083088271   -1.37917878986529   -1.59864643778534
S         7.23916680677290   -0.45051637016514   -0.93929696118017
H         2.60945213172271    1.30973819514948    2.81465950497639
H         1.83739024753246   -0.24212778819190    2.11648061541852
H         1.48474208605129    1.34111100089151    1.41903708297690
H         4.29340780265034    0.19034168158692    1.49192940949419
H         4.25343959558012    2.57843500362008    1.23520726578891
H         2.75867713986899    2.50566359010533    0.25006179759152
H         5.62392326413358    2.50233077945202   -0.82867291116747
H         4.02413314091210    2.86748690467225   -1.66393973597489
H         4.90639572166500    0.37992957233843   -0.39720950625633
H         2.01883166847148   -0.76287761577032    0.01488406051230
H         3.17364528839005   -2.21486858141153   -1.21416218046889
H         4.59348656674038   -1.90634413369606   -0.04412017684657
H         5.31284586236194   -3.02314173420082   -3.76914238486526
H         6.67383255568198   -3.37715307759315   -4.43764660318355
H         9.56071917856127   -1.15176681466709   -1.41235072703358
