32
 energy: -49.234700066337 gnorm: 0.279935937226 xtb: 6.4.1 (79825abcba525fcdf90b791dcacef51065a7a4e7)
C         2.46746623294017    1.24219936972539    1.84721398774426
C         3.51027088577062    0.94646879777345    0.73711572390422
C         3.62403690968738    2.22399686958591   -0.15727041980307
C         4.37879358164269    2.09180866147533   -1.54370260844112
C         4.30656154758825    0.45757127736708   -1.53542307438883
O         2.86426202988697    0.19920278558561   -1.42524754936383
C         3.04201825993939   -0.26397773051364   -0.05826575269858
C         4.00440155618475   -1.44697244250616   -0.32072396829999
C         4.72208711015298   -1.17831420998088   -1.67832044220037
C         4.02914038345761   -1.75169791123199   -2.90365557639322
N         3.46050072448821   -2.38231272167404   -3.83586479758468
C         6.15944841971909   -1.49043792744534   -1.74715066753605
C         6.89941809216378   -1.15549135130879   -2.86575974999856
N         6.44958464110090   -0.58287372307753   -3.99577725344426
N         8.21410465047889   -1.44504771193109   -2.75510856725490
C         8.50717419023344   -1.93122532588390   -1.57169310112895
S         7.19442316029855   -2.03794693644116   -0.47537611757052
H         2.71376057040050    2.19100465732338    2.34035257059539
H         2.33207197356496    0.42919417661860    2.57206661399802
H         1.46891471668695    1.38379072757375    1.41127386345578
H         4.48638479282641    0.73913165937629    1.17571571875536
H         4.16447241001107    2.95771755398055    0.44863381032820
H         2.58948487052719    2.54997251805911   -0.36916246297491
H         5.43348308303620    2.38425451318676   -1.46732404141849
H         3.87322274063915    2.63775484437602   -2.35647283013030
H         4.89871289342480    0.37253627021729   -0.60260951988942
H         2.08518589485901   -0.64128014146788    0.32667426026384
H         3.46717428657195   -2.40061308053484   -0.33006310020483
H         4.79652359297665   -1.45978905100122    0.43833204720674
H         5.43966977401916   -0.53679861829019   -4.10172941860924
H         7.10471612422381   -0.57680635017003   -4.77233888181352
H         9.50792140266611   -2.12357990206812   -1.20851808497470
