32
 energy: -49.227931551234 gnorm: 0.282683116053 xtb: 6.4.1 (79825abcba525fcdf90b791dcacef51065a7a4e7)
C         2.49219114430745    1.33776838741375    1.83603317896318
C         3.53306732563726    0.93591709485362    0.75792901768043
C         3.81069607051223    2.21173353670050   -0.10239762995290
C         4.47964143067853    2.08364875425930   -1.53258361796872
C         4.36212583413630    0.45308473422633   -1.59148103477820
O         2.90878679323124    0.34431499777914   -1.40414284042722
C         3.01088683790919   -0.22875114850163   -0.07149754925599
C         3.85790525334181   -1.48520700729535   -0.38521858219434
C         4.67098142772806   -1.20967917966268   -1.68649085797796
C         4.02528338177421   -1.93378663742380   -2.85659028128658
N         3.40144040982483   -2.49392394182896   -3.79845347987451
C         6.11694559061933   -1.46534024617976   -1.79599619071126
C         6.91812398621596   -1.15305230653285   -2.87841017143885
N         6.47366189271501   -0.55244491581103   -3.99595428905758
N         8.24765173815313   -1.25707882239849   -2.66388334738529
C         8.46835285072589   -1.83528521719051   -1.50642968578059
S         7.08894489248923   -2.14317008781494   -0.53738051808478
H         2.65131708507654    2.28838408824530    2.36052031888990
H         2.40603637262747    0.54410179668644    2.58928683964266
H         1.60286935767693    1.45671947481244    1.20187670456506
H         4.48340180973785    0.66974915275593    1.22072054513298
H         4.48850678532443    2.75725728317249    0.56131389263875
H         2.88450151502748    2.81376291272140   -0.13675687219166
H         5.50797999542642    2.46182480915850   -1.47574287828987
H         3.85741213659580    2.57866596067569   -2.29550118723087
H         5.00851118544951    0.35500888868992   -0.69672832832572
H         1.97666759629093   -0.45372997923126    0.22148569611663
H         3.28329494303517   -2.41244699857321   -0.47566090558003
H         4.51066238586408   -1.71876747807613    0.46516089137563
H         5.51104343353144   -0.75992694701735   -4.24813225508108
H         7.15720950041644   -0.63759981907606   -4.74280993126187
H         9.41834757307138   -2.04866257558962   -1.03486686923123
