32
 energy: -49.226685417605 gnorm: 0.280780624052 xtb: 6.4.1 (79825abcba525fcdf90b791dcacef51065a7a4e7)
C         2.14771560284437    1.08489509033652    1.80723094317038
C         3.39225084182571    0.86847932314067    0.90639104300977
C         3.62543594282708    2.24175616782239    0.19598082924852
C         4.28463934221318    2.31224251165197   -1.24270194356553
C         4.40359254534456    0.68948168085983   -1.41156657411240
O         2.96254930720448    0.43538187294167   -1.27759455694320
C         3.08862396685582   -0.29530732489319   -0.02660647652298
C         4.07792400496938   -1.41158933953099   -0.43860442979942
C         4.79469759419312   -0.92652402951953   -1.73524056581036
C         4.03839300750176   -1.43130978878707   -2.95326558951687
N         3.49227224339013   -1.88175103222783   -3.99676687963157
C         6.18950187189044   -1.36402744608733   -1.91209683336212
C         6.94178041048113   -1.65556563560284   -3.03464441603485
N         6.63085968150781   -1.52669237998315   -4.33614378855156
N         8.22376383609282   -2.00264052959415   -2.78858582814741
C         8.54782395204670   -2.04152726820994   -1.51728592130164
S         7.23841428101565   -1.51337471442845   -0.54614386781269
H         2.32572501596560    2.09798670545512    2.18937759708344
H         2.00419319261904    0.38601056749948    2.64130655178444
H         1.26647887292212    1.12846693983682    1.15246353781081
H         4.25593323014638    0.63516664324314    1.52910681207081
H         4.20085523082601    2.83326755426158    0.91469038869289
H         2.63846748099196    2.73639442344907    0.14418764269822
H         5.28098833211013    2.76210068417807   -1.33567785216040
H         3.51090247544593    2.69527024322602   -1.92744683555541
H         4.90580986242519    0.61539043231100   -0.42652670410842
H         2.10499908058929   -0.67447847761433    0.28124968851813
H         3.53274033010577   -2.33905820787407   -0.64036440977707
H         4.80473261203503   -1.66287424896782    0.34395084896068
H         5.65087052310070   -1.59411393059316   -4.59758670210824
H         7.31642044819811   -1.72385679580470   -5.05961781058361
H         9.39259529469841   -2.61639214480927   -1.16192257255893
