32
 energy: -49.230041105023 gnorm: 0.285929987412 xtb: 6.4.1 (79825abcba525fcdf90b791dcacef51065a7a4e7)
C         2.29462334733625    1.21647877714001    1.85426492715355
C         3.40216090045312    0.90442665530834    0.81349583052682
C         3.54027949119613    2.28414331019801    0.09082546154243
C         4.24992189471943    2.20952897756369   -1.32344676244842
C         4.40460738974999    0.59013681951722   -1.49566546749855
O         2.95455221050542    0.36738425108840   -1.41294848642672
C         2.99926008520859   -0.24777259357950   -0.09599899482913
C         4.03252050784460   -1.36020477229636   -0.39501397977674
C         4.80725847647147   -1.04120429240397   -1.70967658853483
C         3.98215819573579   -1.62408391519581   -2.84539271323640
N         3.36123619597381   -2.19465881921549   -3.78291086858677
C         6.23979552242460   -1.34141601794144   -1.87053952352019
C         7.00385000541880   -1.50500000499426   -3.01093051923697
N         6.63582834237702   -1.15447984728086   -4.25546911463822
N         8.29291447857397   -1.86132138884499   -2.82162872256741
C         8.53002235265225   -2.13120833818986   -1.55922170266943
S         7.24884671034541   -1.68891933413547   -0.51061066567731
H         2.57959484103364    2.05360934777352    2.50394307195604
H         2.04875104347344    0.40551191054931    2.55183207865111
H         1.34477789465868    1.48811241093524    1.37342626376673
H         4.31514597824932    0.68947867659970    1.36884492602240
H         4.12747630204840    2.98368303688012    0.69363603180757
H         2.52054470223350    2.69657095471371   -0.01641576083744
H         5.25093630242097    2.65801039074184   -1.34716980546103
H         3.59919391007603    2.69644605707997   -2.06757000056940
H         4.87992411789018    0.55801871817404   -0.49513674267929
H         2.03345142442714   -0.69699325555010    0.17135568685075
H         3.55038457309048   -2.32796577591466   -0.56564343682028
H         4.69395570227880   -1.39782472351791    0.47955782659800
H         5.69864474740497   -1.32430269228210   -4.61060841802737
H         7.34160493161809   -1.44144417395231   -4.92763942083487
H         9.49287427856879   -2.43311718912120   -1.16914661602602
