32
 energy: -49.233527740923 gnorm: 0.280899309256 xtb: 6.4.1 (79825abcba525fcdf90b791dcacef51065a7a4e7)
C         2.27707498067895    1.04610731464617    1.99260989592223
C         3.34537127784072    0.85072492361052    0.88455528929478
C         3.60810066361186    2.19596572864736    0.13206096983912
C         4.34381092570761    2.26289773400675   -1.26921562099180
C         4.41308273206530    0.63874268233133   -1.45180704552958
O         2.97389361635865    0.35121870695364   -1.37979675982663
C         3.03989264201078   -0.28980513596660   -0.07614601567215
C         4.02814731148784   -1.41425654895888   -0.46794206159076
C         4.76756054874165   -0.98638441322843   -1.77197867805885
C         3.94498682288415   -1.39713789323909   -2.98236881474136
N         3.35241756450358   -1.70123341406900   -4.05308246852066
C         6.17301414397193   -1.40293322136158   -1.91109599258910
C         6.97723175990048   -1.67206795859072   -3.00280616724581
N         6.68238401717066   -1.59059893109225   -4.31185476817792
N         8.26996883763861   -1.98833807574034   -2.77195692371419
C         8.53018366303355   -1.91740678818430   -1.48743849656865
S         7.19901888693689   -1.43865065767780   -0.52027325614759
H         2.58052535088906    1.93720928198313    2.55646554484863
H         2.16563254963713    0.15900316353264    2.62927871774687
H         1.30574900836985    1.18474451508449    1.49813783683682
H         4.30675764020322    0.65440835880457    1.35926896369830
H         4.06904876352315    2.85948249189857    0.87017265646304
H         2.59930371570425    2.62267713141611   -0.01525630489432
H         5.31460355645582    2.74991173508858   -1.11395057807531
H         3.84344864727668    2.70888692274422   -2.14385027716028
H         4.96759295567629    0.58399496930420   -0.49392584664610
H         2.04059417037137   -0.67625852334084    0.16493580047750
H         3.38803748160420   -2.28407409696392   -0.64628910382893
H         4.73433065629139   -1.73615864378481    0.30760403247927
H         5.71070347083657   -1.55525808868490   -4.60827466267552
H         7.34430822623235   -2.09487007945808   -4.89482045048065
H         9.49100084050811   -2.08510531486087   -1.01935846744109
