32
 energy: -49.227326364459 gnorm: 0.285236465865 xtb: 6.4.1 (79825abcba525fcdf90b791dcacef51065a7a4e7)
C         2.35104363777390    1.25165791384550    1.86530157539674
C         3.45925784761463    0.98851640544553    0.81181494421638
C         3.52694669916141    2.24838166531668   -0.11182189025114
C         4.17805800605273    2.19642787950440   -1.55497137631657
C         4.36547855690487    0.57477933760792   -1.44939020322690
O         2.92615048143167    0.33442819547655   -1.27709149117713
C         3.09776280196704   -0.26942585934776    0.03465627165095
C         4.09558728385490   -1.39272040571261   -0.33561130417250
C         4.76033646576179   -1.05261544119030   -1.70409774407266
C         3.96157690803286   -1.60919524791994   -2.87139904364337
N         3.46666246304050   -2.13404578394642   -3.90562906956318
C         6.17469533001339   -1.44752654639853   -1.81272814363917
C         6.99594808800618   -1.34774447403203   -2.92025603920172
N         6.60692304178473   -1.01392454212958   -4.16299672127070
N         8.29456319546099   -1.67318937784922   -2.74089124294868
C         8.52975557203777   -2.09205545377429   -1.51943049941158
S         7.13404798391902   -2.08793845007769   -0.52514730343108
H         2.59227799090705    2.18080932070533    2.39686689256693
H         2.19353222444695    0.44457929624616    2.59230545365539
H         1.45386457347520    1.47139509446902    1.27033743073437
H         4.43308807265539    0.91495206063307    1.29596366454579
H         3.90656505552494    3.07656430441725    0.49442882358030
H         2.48683108417212    2.56933325321264   -0.30314849300933
H         5.15090955424828    2.70362685804719   -1.56107595855164
H         3.61239371243073    2.56028235757860   -2.42783354753861
H         5.06457279085273    0.69461460246800   -0.59796666112183
H         2.15268338904754   -0.66624356617285    0.42889567715715
H         3.71374175203389   -2.41455796799271   -0.24520771157811
H         4.84973542820582   -1.40968975049936    0.46110711549872
H         5.69010919007875   -0.62659556123862   -4.36964965342458
H         7.37887654485455   -0.80349764417853   -4.78916790069504
H         9.52821248403077   -2.40476704092610   -1.24431849325810
