32
 energy: -49.230091050555 gnorm: 0.276714597239 xtb: 6.4.1 (79825abcba525fcdf90b791dcacef51065a7a4e7)
C         2.56094943899915    1.18731990316568    1.83216193408541
C         3.60487145931830    0.90521140943619    0.71957131527165
C         3.84057195751910    2.20638657282227   -0.11489601514384
C         4.37962679220886    2.06906221251301   -1.59809777980009
C         4.41618409714471    0.43372601603771   -1.57920468942430
O         2.96340200083502    0.28731568796378   -1.41455649005361
C         3.06534864238306   -0.27435334741697   -0.07705603098477
C         3.95995041862968   -1.50863030649264   -0.34312080932312
C         4.64104766457883   -1.23929836794519   -1.71930569544685
C         3.89930678111258   -1.75924588949225   -2.93990606795525
N         3.21159831075385   -1.96543654225705   -3.97652683333646
C         6.08729160345059   -1.50947537548739   -1.77888103477531
C         6.93036380107679   -1.29839767008624   -2.85391874519516
N         6.49350670417286   -0.89771026540736   -4.06047836843020
N         8.25631888836002   -1.41721123374563   -2.62541544013435
C         8.44514673226049   -1.65379471678833   -1.34826905251308
S         7.04355371491538   -1.95585702413616   -0.40970042209312
H         2.94101057839997    2.07323982825756    2.35635412536009
H         2.48527824986690    0.29799066542679    2.47097940246152
H         1.55797400966277    1.40363741075677    1.43916821995954
H         4.49450499530596    0.57310093284646    1.25474587283843
H         4.51440410941102    2.91158649345517    0.38126908984832
H         2.84559992142056    2.67810303138579   -0.20960880879710
H         5.37558298067733    2.51612462023477   -1.70734374135066
H         3.61698455763563    2.48794594844813   -2.27423961940962
H         5.02333459610683    0.34969344393844   -0.65599177094165
H         2.04971115874294   -0.52483845271137    0.25731174786676
H         3.39515798545005   -2.43133484709444   -0.50972413763508
H         4.71526028316100   -1.53297557081475    0.45230482392779
H         5.59010492364163   -1.18198827015168   -4.42970465966585
H         7.20594471131440   -0.91707668449580   -4.78459097397410
H         9.39364491307950   -1.70523965340078   -0.83048919715017
