32
 energy: -49.233921294058 gnorm: 0.279944497348 xtb: 6.4.1 (79825abcba525fcdf90b791dcacef51065a7a4e7)
C         2.29535318301219    1.38632222004778    1.74697297433992
C         3.44611264708550    1.07299143459037    0.75460573214926
C         3.56267103846446    2.29471210585568   -0.21429054461322
C         4.31873956325554    2.10291106762093   -1.59302123362574
C         4.41782720532386    0.47433672947324   -1.47493184317152
O         2.98086169897426    0.20581158078527   -1.32611918083061
C         3.09619264007258   -0.23309454978158    0.05548600242583
C         4.06574182910175   -1.41367120261420   -0.19100039004403
C         4.75183752228265   -1.18345018217618   -1.57179326325773
C         4.01272025040442   -1.95855075974359   -2.65036405922702
N         3.57475615236833   -2.54933304623650   -3.67467058721170
C         6.20550679411282   -1.36096082695596   -1.72509676246214
C         6.96613911296722   -1.01764658594480   -2.82718768345717
N         6.55029902145320   -0.22147867206794   -3.82737481867375
N         8.26004817810093   -1.40423378056091   -2.79825705546692
C         8.49359740641881   -2.09488408788447   -1.70684168838913
S         7.12150756889631   -2.44993507662795   -0.74355358525344
H         2.50885162098668    2.28739662156893    2.33566761147187
H         2.12112168698995    0.55946468518735    2.44745165490022
H         1.36871786598271    1.55293876609548    1.18059593501691
H         4.37768894959134    0.96262090623251    1.30971017382347
H         4.10504662484713    3.07486756217573    0.32859313960712
H         2.57556170621650    2.69676455549803   -0.50656657131971
H         5.27183287979382    2.60410335586114   -1.80313458431904
H         3.60268480667214    2.32352771460365   -2.40101159878907
H         5.04888704182109    0.47254238200155   -0.56401167400550
H         2.11398091990357   -0.60354516326905    0.37811671327816
H         3.51020116455968   -2.35669786865951   -0.17664422031957
H         4.86909754179253   -1.48478676614462    0.55287446002962
H         5.55408249340542   -0.04554774971180   -3.92676170338887
H         7.15210032606200   -0.10452852456194   -4.63758459757500
H         9.44151724454521   -2.55617567921481   -1.46384085182975
