32
 energy: -49.229981219646 gnorm: 0.286508505820 xtb: 6.4.1 (79825abcba525fcdf90b791dcacef51065a7a4e7)
C         2.41178497552565    1.34177866949457    1.88590679299048
C         3.43284517789577    0.86097895538519    0.82125475267793
C         3.66721708633292    2.15301860759230   -0.02765666839620
C         4.33465862919555    2.13489449496587   -1.46415201223331
C         4.37887450179768    0.50186177838816   -1.54939846979993
O         2.93849404002504    0.30798738185844   -1.33297833935041
C         2.99754753813804   -0.32649321838825   -0.02579826283686
C         3.93010177607410   -1.50479944741138   -0.39522949202538
C         4.72313224825313   -1.15070085930065   -1.68984713882592
C         3.99709681680601   -1.74437948437992   -2.88601121141730
N         3.39227401221822   -2.17717741398121   -3.90430167593231
C         6.17395738059578   -1.37178669357143   -1.80982153894004
C         6.92703465942540   -1.36757733517225   -2.96908315458659
N         6.63006773169320   -0.98177274677679   -4.22213786246094
N         8.22326214019892   -1.67834347763139   -2.75066602063806
C         8.49384231199400   -1.91594521938989   -1.48850027198774
S         7.15179729568307   -1.75121015285969   -0.43569771226087
H         2.92272119271910    2.13648402499135    2.44399783953108
H         2.10505838136734    0.50264087770529    2.52347007773467
H         1.54553612273377    1.74745533306075    1.34531785051095
H         4.40578088008033    0.67496410650598    1.27617408450477
H         4.25339909679363    2.82829906705553    0.60315507885345
H         2.72740164899268    2.73084487991504   -0.09338356839346
H         5.36248708608036    2.51559575126198   -1.41553695032994
H         3.72345232223422    2.68087940765675   -2.20075358098387
H         4.95892581478055    0.44544650149739   -0.60686301325420
H         1.96126949558650   -0.62737452527121    0.17831531793893
H         3.41410865469621   -2.45230232634229   -0.57994608959821
H         4.70335762960562   -1.69411657369578    0.35976854314899
H         5.63402899350831   -0.99892500021277   -4.42434925997337
H         7.30923698193618   -1.21333765392999   -4.94143533794526
H         9.50322577537997   -2.20871027884969   -1.23193643296423
