32
 energy: -49.224462688726 gnorm: 0.285820306805 xtb: 6.4.1 (79825abcba525fcdf90b791dcacef51065a7a4e7)
C         2.30796316008839    0.97239936679158    1.90419695091839
C         3.46035112307415    0.84642368235165    0.87300910141385
C         3.52436395166057    2.18369427329228    0.06519911002394
C         4.29042551444098    2.29944616638223   -1.31649432714306
C         4.43996274474476    0.67259872071289   -1.40030279091741
O         3.00757486005243    0.36809185520540   -1.27921874365200
C         3.06301534711285   -0.33145584352455   -0.00551074252717
C         4.07752177386060   -1.39953013489317   -0.47936349287830
C         4.80098737242103   -0.93800231419289   -1.78086554565695
C         4.01979181985216   -1.28957169854051   -3.03646210548661
N         3.14993955768412   -1.59507446564740   -3.89673255453671
C         6.21942924834410   -1.30469686638300   -1.92825650376108
C         7.01943202145826   -1.64100443864097   -3.00432497631767
N         6.69817466444402   -1.65261621444198   -4.30963700950683
N         8.27854768779990   -2.05922387229337   -2.75093288312239
C         8.48672369440999   -2.02232155766881   -1.45554430735131
S         7.16656572791513   -1.50071889407660   -0.49547696522923
H         2.33697336140888    1.99569954287815    2.29928326353652
H         2.26095357543098    0.29820636821921    2.76905201328452
H         1.37366398274103    0.88331909553390    1.33292924838621
H         4.44780930814025    0.78496440006025    1.33050893003081
H         3.89908624772379    2.88575056501705    0.81635599999379
H         2.49765501821400    2.51766012814840   -0.17100389130453
H         5.25461328071992    2.82258094929288   -1.33649822850857
H         3.66155383571445    2.63074178183560   -2.15852649902752
H         5.03823631928818    0.66272807258266   -0.46757207584571
H         2.11507996018324   -0.80741648616799    0.27899596493998
H         3.51988687398246   -2.31939662743244   -0.68189690536567
H         4.75782766175896   -1.72359209039037    0.31810460432702
H         5.79148257371918   -1.35946982649030   -4.66354583591799
H         7.43862487836329   -1.82903492698476   -4.98260948291454
H         9.43206657520525   -2.29139392177478   -1.00352853410958
