32
 energy: -49.228297852640 gnorm: 0.281264181570 xtb: 6.4.1 (79825abcba525fcdf90b791dcacef51065a7a4e7)
C         2.52101994860882    0.65186295922255    2.02960831584167
C         3.51228566417475    0.58363818927427    0.83799011614247
C         3.69233685292896    2.05696201813956    0.34621199119961
C         4.50218241142671    2.33145092641612   -0.98725401315216
C         4.36679214248058    0.76845832929335   -1.45065607751448
O         2.91198363472109    0.57086861999150   -1.39056169804264
C         3.04197257965989   -0.34751278651118   -0.27053885505747
C         3.96321853735243   -1.42199235495429   -0.89611216359545
C         4.73468374112009   -0.76108435766958   -2.07863492446503
C         4.02108008595417   -1.05591911237458   -3.38792195572622
N         3.46724030291062   -1.31499929090627   -4.49072705906438
C         6.16584732480111   -1.10619366883241   -2.04970856850979
C         6.86716940500571   -2.06530539369199   -2.75630792327108
N         6.33077925875799   -2.92515894247235   -3.63955088399990
N         8.16144927673157   -2.23876625832160   -2.41099898525808
C         8.42710392451444   -1.58469713793232   -1.30449467506514
S         7.19083989655196   -0.51575320533342   -0.78910567675747
H         3.03628339663678    1.23418782652570    2.80386884359227
H         2.27714158596933   -0.31870136377549    2.48043934717444
H         1.56440398444844    1.15697761281071    1.83740498859897
H         4.41265544449738    0.20559574153314    1.32231972650588
H         4.09143733308380    2.71805588766723    1.12158945533767
H         2.66345244377395    2.42022363338461    0.17044465641577
H         5.53121472290297    2.59997987129000   -0.71760068973393
H         3.95425222306876    3.00575956771778   -1.66499652668516
H         5.02754528705824    0.53183592375560   -0.59308368256284
H         2.05297842023415   -0.76594782727938   -0.04061110611301
H         3.37432421833671   -2.25535007511606   -1.29215411288441
H         4.61855718481823   -1.86318342418217   -0.13475198437486
H         5.35795686101004   -2.92289774709086   -3.93431906867729
H         6.89437903189292   -3.52977452985278   -4.23037854080134
H         9.42469311124596   -1.67324026954528   -0.89538920223096
