32
 energy: -49.232412850414 gnorm: 0.286909448899 xtb: 6.4.1 (79825abcba525fcdf90b791dcacef51065a7a4e7)
C         2.26492695840739    1.18965645418232    1.86984250486206
C         3.37449629130596    0.95858732698824    0.81027692181555
C         3.49489855347621    2.30789210547179    0.02936260752445
C         4.25568421264250    2.26379535113025   -1.35937286991798
C         4.40929612976430    0.63542986745945   -1.38847755097371
O         2.96367185400795    0.37261596668403   -1.37364058224099
C         3.02110034522106   -0.24160228035273   -0.05674627549138
C         4.07756270296677   -1.33315095217965   -0.35162115658419
C         4.83666490637024   -0.97986716978790   -1.66663918373541
C         4.01193097847806   -1.57523339444085   -2.79612723288529
N         3.47418395587524   -2.14722573226357   -3.78288609370198
C         6.26173785015767   -1.29930086137967   -1.85451033553571
C         7.00829241515853   -1.40442554350298   -3.01323190436339
N         6.62944762448975   -1.09645242359923   -4.26575328790171
N         8.29579657212728   -1.76981819105069   -2.83072554191149
C         8.52066558315021   -2.20287271702462   -1.61227230222394
S         7.20777492209394   -1.92042892533091   -0.54777274263358
H         2.58488025139529    2.03132855913282    2.49697566022703
H         2.01339330202107    0.30926337407754    2.47511865968995
H         1.35138253561406    1.50446590661884    1.34684285705064
H         4.33155562935762    0.78478999758280    1.30220061092342
H         3.87600779591712    3.10603030696126    0.67377525843431
H         2.46304255616490    2.60458282386747   -0.23275206503664
H         5.26967842336728    2.65754588333894   -1.21617905781864
H         3.59303132256057    2.58433867298134   -2.17937145358725
H         4.94713286689182    0.55638543461732   -0.42281771747710
H         2.01701807174722   -0.64113100143947    0.13885455826811
H         3.57666016110745   -2.30186241361745   -0.44556569851692
H         4.78194413410611   -1.46836236735067    0.47865126434257
H         5.64353617902107   -1.12893015270295   -4.51111145935736
H         7.28468724099027   -1.43941800355843   -4.96240075462114
H         9.50028459575815   -2.50226662648619   -1.26427627484213
