32
 energy: -49.222950939202 gnorm: 0.280219482693 xtb: 6.4.1 (79825abcba525fcdf90b791dcacef51065a7a4e7)
C         2.79865588792230    1.04648658893961    2.16222004640819
C         3.57199756082843    0.80638834902823    0.83877312304899
C         3.73095918261998    2.15654619359043    0.06627571277883
C         4.17680178317453    2.16468588920910   -1.45375181513817
C         4.24897649580128    0.53143577938874   -1.51122118691577
O         2.82363870856459    0.21722106080777   -1.34150928727748
C         3.03854233897966   -0.33612984879393   -0.01395819542053
C         3.88746141096141   -1.52631893192708   -0.52123402450499
C         4.60913105199268   -1.09210679516466   -1.83309177020553
C         3.90939278183474   -1.52202653710668   -3.11212484322762
N         3.69282159824659   -1.87180149935548   -4.30409570613004
C         6.03728079020849   -1.44570302679234   -1.89245821453912
C         6.91410535791145   -1.62165227592360   -2.94661717845462
N         6.70243482110898   -1.51330664296393   -4.26973374074696
N         8.21708901214133   -1.72704537769454   -2.60659776240503
C         8.40434146893558   -1.61208863258430   -1.31259155847501
S         6.97073720359370   -1.23508164562768   -0.45278911754707
H         3.23998204933606    1.90502154371959    2.68397380667407
H         2.91504652614986    0.11296267162077    2.72764616399458
H         1.73356840858325    1.17254262598051    1.92369212054925
H         4.53131120393680    0.53956244656678    1.28225736681501
H         4.40102843767475    2.85970547161358    0.57036968241348
H         2.71832956530282    2.59854960236311    0.09217024900272
H         5.15482702950039    2.57505912498739   -1.73444493716559
H         3.44480632924692    2.63838656701242   -2.12758033007439
H         4.86082234720638    0.45646874511685   -0.59033037332214
H         2.09174544720728   -0.70968940429976    0.39846513249963
H         3.12527778227301   -2.24847306209772   -0.83058877349308
H         4.61646509093838   -2.00981731763650    0.14101258004551
H         5.80627898856706   -1.81292514467987   -4.64444735183491
H         7.54991684925976   -1.84044488926723   -4.72474672734685
H         9.38890952700085   -1.79676602073294   -0.90404369196722
