32
 energy: -49.230181060358 gnorm: 0.289850936755 xtb: 6.4.1 (79825abcba525fcdf90b791dcacef51065a7a4e7)
C         2.21451527166378    1.41578059601280    1.72103414219410
C         3.35737446023694    1.08149601256938    0.72637693407917
C         3.46979520298102    2.30521269310655   -0.24048723254684
C         4.27888570885331    2.15293615625984   -1.59382014740504
C         4.43123095319543    0.52941745677320   -1.46345214180409
O         3.01197791641481    0.18180836883553   -1.30850192060196
C         3.09375715672291   -0.26742930736955    0.07217558239994
C         4.16491939080071   -1.36769297397943   -0.11906704576321
C         4.85853764598387   -1.10943770682519   -1.49111512128010
C         4.07048355198410   -1.72603051690501   -2.63530667415647
N         3.43838476757235   -2.12991018439620   -3.64890052258530
C         6.27648108217819   -1.39758654753947   -1.76419572467587
C         7.00205630731459   -1.13685425243886   -2.91162321790514
N         6.62245636795220   -0.50440252671222   -4.03549568870043
N         8.27280386557133   -1.58628879514563   -2.82389323307542
C         8.48627496757523   -2.25516826154412   -1.71494736395344
S         7.15062035634714   -2.38855948751565   -0.64965433469473
H         2.24953523115824    2.45633171090536    2.06759584772280
H         2.27049935704418    0.68759225400428    2.54038016202724
H         1.23446877430429    1.28488751685152    1.24189647970060
H         4.28468714563977    1.02575878943933    1.29658877939277
H         3.75525135188929    3.15836961282456    0.38254933556451
H         2.42687939799767    2.56621992952859   -0.49672565471708
H         5.28938617493294    2.54672919027594   -1.42785610052679
H         3.72463340013844    2.47848498547155   -2.48884913353694
H         4.98243735077480    0.67074080559751   -0.51255019636188
H         2.14836423623691   -0.75273057089210    0.34926583291933
H         3.78193104186385   -2.39291680508543   -0.09991380904328
H         4.98948938650969   -1.31872024776338    0.60306425591318
H         5.65614920635586   -0.19638278118135   -4.10369480587449
H         7.00335945968568   -0.83869482176564   -4.91608840354291
H         9.43084731984783   -2.69649358776064   -1.42614572543032
