32
 energy: -49.226086219115 gnorm: 0.288356896048 xtb: 6.4.1 (79825abcba525fcdf90b791dcacef51065a7a4e7)
C         2.26403283665861    0.75298964318236    1.95157182169467
C         3.36769779904970    0.71130558203483    0.86189188680724
C         3.54165999130747    2.17065438022448    0.32805155778586
C         4.34642756041428    2.34842178277770   -1.02475052702847
C         4.49689845153514    0.74651506890878   -1.32016761308573
O         3.04512237883610    0.52131782117656   -1.34761330171564
C         3.02161967351765   -0.34399688235723   -0.17908825343860
C         3.99538715262250   -1.44815952071058   -0.65568470668104
C         4.83755309598786   -0.83680016634011   -1.81642338066284
C         4.06089117925792   -0.97855327971146   -3.11530466747273
N         3.61263176016099   -1.25892698164034   -4.26007287069381
C         6.25057604452911   -1.19130095560917   -2.03057686263168
C         6.83488087600162   -2.10451801377102   -2.88827906771386
N         6.28566093279695   -2.76869040275186   -3.91998306185203
N         8.14235503277646   -2.33425841548442   -2.63884371312704
C         8.55707604357502   -1.69745260588447   -1.56869632263306
S         7.35240282286460   -0.78341440768507   -0.76252493832679
H         2.65089930538999    1.30744658613197    2.81585757896588
H         1.99902720824640   -0.27470924176147    2.23144214605499
H         1.33686998557401    1.14066797785216    1.50741915470888
H         4.25227402921423    0.44232642605162    1.43924109685251
H         3.99820165426727    2.88260105574895    1.02248524760496
H         2.51199571541251    2.48597664049843    0.07941601195588
H         5.33194507699584    2.76820835934006   -0.78755300806855
H         3.78312281349433    2.92472659748867   -1.77629232327384
H         4.96480053598511    0.64743395751902   -0.32053474955879
H         1.96545098845944   -0.60144091785387   -0.02322172565415
H         3.48896076116378   -2.35447826493563   -1.00245476534290
H         4.59593488327892   -1.88660890060658    0.15109418755435
H         5.44220628790235   -2.37334756785849   -4.32688000274911
H         6.99885939058649   -3.16257873097833   -4.52701023018056
H         9.57243163374257   -1.70727448439935   -1.19540298615075
