32
 energy: -49.225972380469 gnorm: 0.279441742569 xtb: 6.4.1 (79825abcba525fcdf90b791dcacef51065a7a4e7)
C         2.26903499791408    1.17468719378147    1.87796313672344
C         3.41151038733890    0.90614735569615    0.86314659727209
C         3.65896068276577    2.22563771208506    0.06148532007826
C         4.19176761166476    2.18327579129934   -1.42970474438188
C         4.27059314990528    0.55221766026803   -1.52693514151071
O         2.84076243893803    0.30187652712322   -1.29882491058305
C         3.06354878838565   -0.30209264494212    0.00515368603460
C         4.10797124027491   -1.39210565999083   -0.33484010493278
C         4.76272736552890   -1.05825267804075   -1.70966903699755
C         4.12566847539831   -1.75660285897724   -2.89998547376731
N         3.53198341830185   -2.30894198525546   -3.86564570067825
C         6.21886011510385   -1.22023042993629   -1.85666216823625
C         6.98304969697117   -1.31307669322438   -3.00488882419112
N         6.57489244831354   -0.95319583186523   -4.23414635020400
N         8.25565146818991   -1.73254553660647   -2.83454231044157
C         8.52761931204524   -2.00531832915481   -1.57980764238728
S         7.17275028641296   -1.82216730261567   -0.54665648204840
H         2.53405401584716    1.94526472561764    2.61284627265938
H         2.07862880236326    0.23821569764238    2.41785849418280
H         1.37606171788259    1.52286189362697    1.34077589345752
H         4.24736639152341    0.70223886539559    1.53241714807640
H         4.46586312903697    2.74440006277812    0.58810717089414
H         2.66873090631423    2.71640730440943    0.05466778196139
H         5.19661520914226    2.61918247891272   -1.49290972840498
H         3.48075742198712    2.59422927540017   -2.16444026850710
H         4.83786530668744    0.53111922677799   -0.57521435662316
H         2.13886014456759   -0.72834291650037    0.41664574466108
H         3.61405086183961   -2.34616125106614   -0.54448604660953
H         4.90101710806166   -1.31286537283500    0.41920687728613
H         5.58274069319138   -0.94481811868862   -4.45514753363564
H         7.30754648646765   -1.09336878093464   -4.92396635730190
H         9.54336555026818   -2.12748039611162   -1.22805863140015
