32
 energy: -49.227524335270 gnorm: 0.277185576523 xtb: 6.4.1 (79825abcba525fcdf90b791dcacef51065a7a4e7)
C         2.43265530561084    1.24621096976278    1.82067425759737
C         3.52045130894349    0.87238852858664    0.77943801703957
C         3.64796081940309    2.18009607227090   -0.06825860405427
C         4.34890615075440    2.10718598587351   -1.48695001906239
C         4.37662994525115    0.47156764191141   -1.48558374735150
O         2.93384074657066    0.24552264236661   -1.32315279657293
C         3.07952774658440   -0.35439694019284   -0.00647345323736
C         4.02495491540029   -1.53961734677741   -0.31625155492769
C         4.68973233282677   -1.18170297803373   -1.68017467531605
C         3.90668478199427   -1.70320173520070   -2.87401964688131
N         3.55757384671743   -2.25594068558983   -3.95227812587315
C         6.12094174731862   -1.47834060716142   -1.85853408070035
C         6.92376693278591   -1.23047149255135   -2.95628779389061
N         6.44891789278573   -0.80059190543349   -4.13819412028914
N         8.24727675565439   -1.38879383241277   -2.73778586151545
C         8.52295685458662   -1.74086174968744   -1.50377643922489
S         7.13041228685937   -1.88558876790347   -0.51560165106950
H         2.63473416504612    2.20819981062647    2.30834180927414
H         2.35379867994381    0.46226704752172    2.58482996095153
H         1.50048615989421    1.36566016029752    1.25147340545768
H         4.43958435388535    0.76165631662515    1.35484207215072
H         4.25897449578256    2.77657837043596    0.61614454026156
H         2.64570437930539    2.64487423559387   -0.09858301013461
H         5.34626881084992    2.54880711029508   -1.36876918625634
H         3.63528900838929    2.54807094898906   -2.20153071354981
H         4.95751789996796    0.34739178351184   -0.55008129619904
H         2.10160307402506   -0.67477478944705    0.37704377816438
H         3.47401595117433   -2.46364836964487   -0.51815191774886
H         4.85599171203834   -1.56254735550424    0.39973704844717
H         5.47244306760330   -1.01008224016299   -4.32763416524875
H         7.14404065146090   -0.93920830522838   -4.86611711181554
H         9.48941848177921   -2.10500845767827   -1.18168878794126
