32
 energy: -49.226453863291 gnorm: 0.283324413409 xtb: 6.4.1 (79825abcba525fcdf90b791dcacef51065a7a4e7)
C         2.41338841431303    1.15015508368258    1.89010381042338
C         3.42890141081206    0.92135393841258    0.73962579619290
C         3.53378573309574    2.26207945376113   -0.05812205188648
C         4.22481719661273    2.19055544890609   -1.48173906632577
C         4.36958259071026    0.56222503320699   -1.42173159521421
O         2.93533636440352    0.24579700292417   -1.46568492136302
C         3.03496247365096   -0.27699338595570   -0.11234182031388
C         3.99451327123020   -1.46955088865598   -0.33952300199639
C         4.79480326419708   -1.06596932049034   -1.61505263456552
C         4.11457347582428   -1.68822915742607   -2.82355186633620
N         3.54824961386426   -1.97877623314509   -3.91208290964911
C         6.23209530959479   -1.33291385310883   -1.79140049092298
C         6.97783199325594   -1.37676540119172   -2.95457908948668
N         6.49512195007531   -0.87426845265301   -4.10421750148627
N         8.25593358025189   -1.79292431989921   -2.82132967353188
C         8.52180184437454   -2.05225958821218   -1.56244529478706
S         7.23275707481567   -1.80071907705393   -0.46166981781447
H         2.65955534034967    2.05495961943651    2.46002365835114
H         2.51649849397566    0.28100916428791    2.55242855111928
H         1.41012861001346    1.22020395049217    1.44765612228318
H         4.38689976383672    0.75249263606448    1.23144082338356
H         4.04100309864242    3.01814352640639    0.54903045840357
H         2.48131206888498    2.52004597918704   -0.27539777894306
H         5.22815489870889    2.62984316226371   -1.54551969336424
H         3.61794506663890    2.58594850898471   -2.31217575540135
H         4.90913832308254    0.61572915424650   -0.45527817605368
H         2.11419375276198   -0.71838191290006    0.29191704654388
H         3.33469286470392   -2.32982331576447   -0.49018557274037
H         4.59473609026633   -1.65186773490449    0.56063295820447
H         5.48852255995928   -0.84141228228021   -4.24189450407431
H         6.94192589464601   -1.27301921300785   -4.92497697007805
H         9.46152369546309   -2.45944153555515   -1.21385231796917
