32
 energy: -49.230294205010 gnorm: 0.278322736212 xtb: 6.4.1 (79825abcba525fcdf90b791dcacef51065a7a4e7)
C         2.17565994506672    1.36725098815908    1.71141492420521
C         3.38624336282212    1.00730198776686    0.81022638860694
C         3.57607909661982    2.28542322182609   -0.07029377610989
C         4.31661790866740    2.22153235582013   -1.46916681968365
C         4.43570287554302    0.59027149713706   -1.44045071565660
O         2.98712440906061    0.37138797398718   -1.32717556883807
C         3.01951229768203   -0.22671945298481   -0.00203737540584
C         4.04630938799989   -1.36099616448729   -0.23365449847075
C         4.76126499525157   -1.06553671184830   -1.58711679474824
C         4.10197368248848   -1.84742481936720   -2.71156162773574
N         3.74529696091118   -2.57055562183981   -3.68104793218190
C         6.19669965311342   -1.37475316059166   -1.69702079350617
C         6.89186485983881   -1.19095688157645   -2.87769639241353
N         6.54171839461435   -0.55859360734344   -4.01114016402242
N         8.14393213295412   -1.69501505829043   -2.93004349023075
C         8.45752141838748   -2.28085569886945   -1.79814990048319
S         7.23295271446422   -2.21925860300612   -0.60096445783519
H         2.31304698463936    2.37031577463850    2.13457431721762
H         2.04152752478027    0.72205796515193    2.58917049170491
H         1.23774743117347    1.35729121920445    1.13921045513853
H         4.26038270670842    0.92451054191334    1.45612342932962
H         4.17188098979598    2.99504412784444    0.51193880828919
H         2.57074158546513    2.70897380282516   -0.24737476457910
H         5.30314480561877    2.70023547781321   -1.50572094034056
H         3.65793294627458    2.56615428236347   -2.28256979106788
H         4.98084332887605    0.59655683904308   -0.47567215427173
H         2.01654660784326   -0.63816060776499    0.17357611857702
H         3.57077096150442   -2.33798843259210   -0.36586699273934
H         4.87792189301523   -1.38138929075356    0.48174216604212
H         5.58735420290633   -0.33226177155301   -4.27804782910769
H         7.28871353501172   -0.61578777288534   -4.69744121012205
H         9.46555565288243   -2.65774717897849   -1.68764581083696
