32
 energy: -49.227490480840 gnorm: 0.269646872133 xtb: 6.4.1 (79825abcba525fcdf90b791dcacef51065a7a4e7)
C         2.54978996018262    1.16211090698998    1.93382942568328
C         3.52693160425979    0.96700953888395    0.74456665664124
C         3.57332693131568    2.27466694584622   -0.11148639907837
C         4.30804220149921    2.14965360750764   -1.50930280413028
C         4.30508042958971    0.51565585355621   -1.58715149383759
O         2.87486859408570    0.22609732872174   -1.41460934516242
C         3.05988419692754   -0.24384490152523   -0.05090254851245
C         4.05722012169389   -1.39107673309830   -0.34025111327860
C         4.67124790947273   -1.13020352632901   -1.74923409479677
C         4.00159988947389   -1.78433852266344   -2.94676036316815
N         3.54596654379820   -1.99727536992983   -4.10308916146510
C         6.13335064569886   -1.30461656598324   -1.75066498216193
C         6.90014741407227   -1.36527015319557   -2.89930525094330
N         6.56691884969738   -0.94936568771997   -4.13347008679267
N         8.18388107343742   -1.74258530792184   -2.71451216725368
C         8.44409278966056   -1.98918434123878   -1.45189212449149
S         7.09530825693967   -1.81715327404267   -0.40891499506434
H         2.89762922642201    1.95701499715128    2.60555360160254
H         2.57592409455347    0.30359693450369    2.61719692967615
H         1.50159960368259    1.25693606006087    1.61838972972883
H         4.43967015954215    0.74585511142508    1.29788035827361
H         4.18447664805210    2.99014460703184    0.44719441161134
H         2.53891529494489    2.61333389377847   -0.30319854489085
H         5.33336300129583    2.53620592217039   -1.45432308216989
H         3.78396202778368    2.67408086953718   -2.32451477901022
H         4.91025665124077    0.46941292606623   -0.65998450227638
H         2.12851488024996   -0.62560617176995    0.38827125108383
H         3.51769156895706   -2.34346240723035   -0.33911251205646
H         4.90307913788656   -1.48268183831983    0.35251049913874
H         5.58603373288110   -0.98660767718672   -4.39758036232256
H         7.16344662864044   -1.27656122869960   -4.88804263100750
H         9.40556116625896   -2.17594672530858   -0.99244709973687
