32
 energy: -49.228103554499 gnorm: 0.284546782934 xtb: 6.4.1 (79825abcba525fcdf90b791dcacef51065a7a4e7)
C         2.14353289004298    1.34723615450758    1.69091875733452
C         3.31230382257134    0.98999729000468    0.73510958637470
C         3.50156424771863    2.19451933620862   -0.24379510186202
C         4.39240935445282    2.10000391029392   -1.55023584042275
C         4.43099855892684    0.46870410285094   -1.43452200937316
O         3.00450375180017    0.13150705048519   -1.33189870040049
C         3.06270767484003   -0.34198230056027    0.04185267395627
C         4.22105294638439   -1.36118006989468   -0.07653040020823
C         4.86641868199817   -1.16754904210289   -1.48234976241535
C         3.93025007039987   -1.57096851816805   -2.60983870299459
N         3.37090983094792   -1.81758500226055   -3.71272534912049
C         6.29415713896608   -1.40330247512058   -1.75465395704794
C         6.97492495876492   -1.21729000354280   -2.94334446704661
N         6.52940007042192   -0.58193092966960   -4.04107259989566
N         8.25664876377051   -1.63894956016431   -2.88109804349354
C         8.51905807371337   -2.25776050479662   -1.75373609632615
S         7.26416882491529   -2.23044316395492   -0.58706457744320
H         2.30177115359433    2.32449928529958    2.16420034516297
H         1.85546112987033    0.57264784616168    2.41324001052253
H         1.21931802121476    1.51350100531570    1.12049793834390
H         4.19889782092859    0.90545598931277    1.36356869774205
H         3.85942079158894    3.03501462472349    0.35873529009582
H         2.52312360906151    2.53115220360575   -0.63211006797029
H         5.43561768906535    2.43962360091553   -1.54008454249458
H         3.88474854155210    2.50800491971400   -2.43909478781246
H         4.91059480559088    0.63682043186185   -0.44976841911302
H         2.09172273324766   -0.80314059327139    0.26676458827496
H         3.87262314579120   -2.39088003224779    0.05170955813164
H         5.00552726204998   -1.11682630149827    0.65057269072557
H         5.53067104241388   -0.39381114917843   -4.06176295688362
H         6.98235494824527   -0.79674041156204   -4.92479812247766
H         9.45938035928235   -2.65638182889790   -1.39696390452074
