32
 energy: -49.230268795637 gnorm: 0.283508341800 xtb: 6.4.1 (79825abcba525fcdf90b791dcacef51065a7a4e7)
C         2.54491459641560    1.03132477340186    2.02491299474464
C         3.51587267833518    0.76698270735802    0.84398964999266
C         3.63511861032731    2.15944406387635    0.14272006170284
C         4.32226357865062    2.25777640551126   -1.28117885112978
C         4.29747496211963    0.63429147147728   -1.48042753604364
O         2.86117326603806    0.34649720310269   -1.36496013535611
C         3.02200128854493   -0.33051820857278   -0.08802741202945
C         3.93986165433694   -1.49442849603345   -0.53231066253163
C         4.69189780463047   -0.98209476776779   -1.79812019315538
C         4.05236676520827   -1.35343878495356   -3.12608627607175
N         3.56394253817403   -1.65215826214690   -4.24958464798000
C         6.11488656455883   -1.34417794571508   -1.90841576332226
C         6.92973103694823   -1.64013749210180   -2.98520126246054
N         6.62753784034282   -1.98512331880638   -4.24886445949983
N         8.22767133620031   -1.84997606304459   -2.67567571344633
C         8.43852264821346   -1.71612301018736   -1.38712781915934
S         7.05393150641873   -1.32277886692187   -0.45717972828964
H         3.15374638990635    1.55522432156529    2.77252997376327
H         2.16474296192824    0.09224370180508    2.44718855508317
H         1.67062059354876    1.60715801542237    1.69141170667577
H         4.47077971255805    0.50969854258761    1.30237204353644
H         4.24524006118581    2.80947125159340    0.77734828318038
H         2.59765814391622    2.53169339241478    0.06171079366867
H         5.37131959672667    2.57805921233478   -1.30625077451503
H         3.74487327768113    2.87799271998368   -1.98559826309912
H         4.92089275601134    0.40874894593539   -0.59245449456828
H         2.04138619935689   -0.65081581252762    0.28862573047039
H         3.32360143267961   -2.38205763933915   -0.70686342703042
H         4.72600578570104   -1.68019473972898    0.21015545088046
H         5.69612709836910   -1.81072134614352   -4.61674323313432
H         7.37399122405729   -2.06096458981665   -4.93394655536735
H         9.40452354838863   -1.76531831776684   -0.90255229303813
