32
 energy: -49.228309900842 gnorm: 0.281119366807 xtb: 6.4.1 (79825abcba525fcdf90b791dcacef51065a7a4e7)
C         2.05566686544417    0.43659324348828    1.88583716258447
C         3.24617684967793    0.45587685748049    0.89108574128392
C         3.64364906270556    1.94853256405081    0.64830592833018
C         4.62518684747184    2.26167630023373   -0.55496052010737
C         4.58379145354381    0.76973330338141   -1.22459502125512
O         3.12051125967443    0.73986641865140   -1.35513189314323
C         2.89556772269548   -0.31147776304565   -0.37592378551823
C         3.84640067532690   -1.41709641533172   -0.89367518183297
C         4.77163387991821   -0.74719137290843   -1.95456572912386
C         4.20739588819128   -0.83057062667526   -3.36349213672897
N         3.94203732017791   -1.17941973582523   -4.54583272570278
C         6.18780249184720   -1.15025106757216   -1.96782140026285
C         6.74470650309692   -2.32568498502379   -2.43605599184892
N         6.05309212038442   -3.32121704864575   -3.01723246863892
N         8.08850982618760   -2.44558764762428   -2.37045648432878
C         8.58418380338625   -1.34741889734848   -1.84981908758877
S         7.47410662375338   -0.08189627809882   -1.52919960453570
H         2.28003162847515    0.79855029344232    2.89713612095581
H         1.62908307796717   -0.57440891953266    1.91076261484350
H         1.28872473084348    1.14883640373055    1.55161197189227
H         4.07366738269037   -0.07151596381026    1.36571531718008
H         4.15686967773641    2.35632521207079    1.52457430334805
H         2.73502181080864    2.55131785781204    0.46802090506319
H         5.67553813782019    2.35723668304588   -0.25270468395313
H         4.17600421623043    3.06768995068454   -1.15731548546306
H         4.98690430234115    0.36137323592478   -0.27656686884379
H         1.83497527618195   -0.59607774982755   -0.39043611875763
H         3.35504147739540   -2.31061478047979   -1.29157202522632
H         4.55873267558199   -1.75835721108653   -0.13215576839610
H         5.09889140587519   -3.14610150911763   -3.32073264795780
H         6.51296848775717   -4.03075743547631   -3.58056913589730
H         9.65094352240809   -1.20582768751316   -1.73861211538100
