32
 energy: -49.232158510275 gnorm: 0.283658882909 xtb: 6.4.1 (79825abcba525fcdf90b791dcacef51065a7a4e7)
C         2.50027104921089    1.34610046615788    1.85507347068087
C         3.48835465496377    1.00576638924413    0.70830419396430
C         3.55334589552435    2.24190206942253   -0.24704494369915
C         4.23922283153256    2.10521178053564   -1.66838732446405
C         4.35309288903004    0.47666805555967   -1.56399961951223
O         2.92109587876370    0.20147600973749   -1.38296169138196
C         3.03834202058033   -0.25934461700337   -0.00867264138298
C         4.05795948023602   -1.40062886792095   -0.23756760729535
C         4.71679609767441   -1.17627662826248   -1.63252938567771
C         4.00125678722347   -1.79516388661087   -2.82222358225494
N         3.53173247098749   -2.38310107475298   -3.83411137809653
C         6.15571740285868   -1.46362091202147   -1.75543215128768
C         6.95813287851742   -1.14256659176218   -2.83435945498292
N         6.51088258752458   -0.48540957744615   -3.91846852570014
N         8.27100113949479   -1.43218153584323   -2.70402363486965
C         8.49547367454305   -2.06741606784338   -1.57760463501817
S         7.11180917487875   -2.32249405211629   -0.59932887083827
H         2.91462341201037    2.17648397101090    2.44061031035737
H         2.29176935499348    0.50131640968058    2.52409314204451
H         1.57000790459430    1.76617772940262    1.44845004580245
H         4.46254058619376    0.87022009759589    1.17814031179962
H         4.08402721085403    3.03522293822695    0.28826417200467
H         2.52637955909782    2.64391737223087   -0.31901801355141
H         5.24034134648083    2.55368000452013   -1.64925157223687
H         3.53340241253362    2.37802843167411   -2.46941364119586
H         4.93635080152434    0.42272021094267   -0.62330034150280
H         2.09967477766894   -0.76461261585951    0.25528219292159
H         3.47297772591072   -2.32567422948578   -0.25234094584440
H         4.79045725341031   -1.44299651232692    0.57817721157087
H         5.79185974694736    0.20592563211588   -3.72266607298994
H         7.24003235250294   -0.11570361964993   -4.52174305918590
H         9.45767236749217   -2.49035277450396   -1.32130485716847
