32
 energy: -49.231633359759 gnorm: 0.288745875619 xtb: 6.4.1 (79825abcba525fcdf90b791dcacef51065a7a4e7)
C         2.34390837590189    1.40501881448342    1.76202546076207
C         3.44997736923095    1.05543193741189    0.73167762277099
C         3.52047747981628    2.29334610610367   -0.22097420206364
C         4.21130436343329    2.07248974110104   -1.62927326473770
C         4.33462997735528    0.44719642519825   -1.49059995400760
O         2.90837811355662    0.12708134370828   -1.34075742011071
C         3.04390449387614   -0.24766797326242    0.05780192831618
C         4.02183778264096   -1.41817750826772   -0.20315078576040
C         4.77468330261218   -1.18748632646583   -1.54863329721987
C         4.08233883663394   -1.89176891166275   -2.70407063275853
N         3.54184090585144   -2.48880026569789   -3.67435703215172
C         6.20849936397477   -1.46050486205020   -1.74305228894495
C         6.99474684144704   -1.02647136292545   -2.79398541362152
N         6.63560493052576   -0.11514417953367   -3.71468107254617
N         8.28348812187282   -1.42895058387540   -2.83452806369383
C         8.51449711632988   -2.23973220781793   -1.82854665402498
S         7.22027601905907   -2.41821785015242   -0.71960557177033
H         2.59617725503639    2.31425845014518    2.32213414106963
H         2.16626158905193    0.60754972163595    2.49496819001309
H         1.43982502207621    1.68721645761388    1.20507410324950
H         4.35780912227214    1.09049198600250    1.33398095423672
H         3.96786622573603    3.18510075861189    0.22864058544317
H         2.46833904732344    2.53395603707403   -0.45881419606389
H         5.21936605950441    2.50326475226259   -1.58485801328086
H         3.56713972586737    2.44944907754431   -2.43995700439332
H         4.90780780920310    0.50842249483017   -0.54416779252609
H         2.04538609741670   -0.57498842181397    0.37699846969393
H         3.44292121742664   -2.34584775448108   -0.25228683094400
H         4.74086043690365   -1.47381468028212    0.62370987145800
H         5.66029195082282    0.12898672347244   -3.86448597408352
H         7.21294744951701   -0.14539970094547   -4.55017030490846
H         9.45627085452542   -2.72006624990507   -1.59891043554467
