32
 energy: -49.224919397105 gnorm: 0.280126185047 xtb: 6.4.1 (79825abcba525fcdf90b791dcacef51065a7a4e7)
C         2.46402308140006    1.29971098605356    1.86158160122302
C         3.47693930276194    0.92865348797956    0.74644334479876
C         3.63458131235254    2.22453693677897   -0.11424378694402
C         4.33391801431053    2.08465417573632   -1.52870006270389
C         4.41406307324306    0.45275015894134   -1.44817754026669
O         2.96269529708572    0.22437416842439   -1.42588816906659
C         3.06384442069500   -0.28857511958687   -0.06889716556572
C         4.05023220797689   -1.45615416842734   -0.31043538750704
C         4.69618632040404   -1.19752266529306   -1.70548772305490
C         3.88160035020438   -1.90592174116552   -2.77553942431536
N         3.37784438526979   -2.38920337391770   -3.82563890096532
C         6.13922145051290   -1.45356864357818   -1.84781273593261
C         6.97793291133025   -1.06884407600659   -2.87717209156591
N         6.56223102742040   -0.56969382422883   -4.05412646851068
N         8.28473930948215   -1.35356237033109   -2.68828100956208
C         8.48738530553182   -1.94602955360930   -1.53474391503618
S         7.09321007360970   -2.07405728155044   -0.54656375973901
H         2.72756181277689    2.23850566893211    2.36486076474967
H         2.36201595868378    0.52147159814053    2.62882235950580
H         1.43110747915564    1.39850121042958    1.50030209034939
H         4.43860885826505    0.68663598064022    1.19896538402887
H         4.21642781221906    2.96579919262256    0.44210271172372
H         2.61301432191286    2.55482582409421   -0.37647730447897
H         5.28310247761576    2.61235273986253   -1.68462080107270
H         3.69111815665812    2.49089435781082   -2.32621608076929
H         5.05368549608244    0.45493068726584   -0.54325009138211
H         2.11096550989937   -0.75004796635282    0.22287105031498
H         3.41936687639184   -2.35065402486196   -0.30731023758898
H         4.82603951568952   -1.54727226127180    0.46002430150024
H         5.59312560592842   -0.77590690986072   -4.28125564190821
H         7.27874961507697   -0.53139660173872   -4.77344313875111
H         9.47483129634633   -2.00483536441090   -1.09669865510452
