32
 energy: -49.222879587328 gnorm: 0.281432820094 xtb: 6.4.1 (79825abcba525fcdf90b791dcacef51065a7a4e7)
C         2.74083108272521    0.96157409776673    2.05412956692036
C         3.62426008824831    0.71902339416139    0.80195600935975
C         3.82293662262251    2.03722548894655   -0.01524539137502
C         4.50612685213783    2.06702468492471   -1.44412211588956
C         4.31375173480872    0.44545123086049   -1.54163740585419
O         2.86512186506397    0.32795179508387   -1.32533620333601
C         2.99976165710411   -0.37123507228730   -0.05735254764885
C         3.84449096133567   -1.56677551906285   -0.55900765763769
C         4.61282410874302   -1.19068502020075   -1.86228740505869
C         3.94226419105756   -1.46672490613047   -3.19815477251388
N         3.22701877006692   -1.53570333520255   -4.23435268170408
C         6.07338161506687   -1.37518301519357   -1.89226463951191
C         6.97919699760144   -1.53348030114619   -2.92448121770203
N         6.61515411592433   -1.86429332084216   -4.17556721220393
N         8.27934178986937   -1.44772488984394   -2.56845194452911
C         8.42353229004298   -1.35826310349464   -1.26693887084504
S         6.94652198073113   -1.23281021595874   -0.40710294727846
H         3.30407595647160    1.58807425083555    2.75721619520669
H         2.68074691761548    0.00467283306626    2.58840500361024
H         1.83371471269834    1.53072031048428    1.80834609596488
H         4.57477947823655    0.42386928687830    1.24642641942399
H         4.24993135634786    2.76579378801207    0.68074328696477
H         2.76988025816471    2.33189166963621   -0.17555889628770
H         5.52999648924841    2.44553273728219   -1.55435292142126
H         3.76822598545672    2.55322866719160   -2.10242489963133
H         4.86059884893429    0.24439800196335   -0.59900750636457
H         1.99878073509195   -0.69259197295892    0.26018647702021
H         3.22407924100474   -2.44244630570597   -0.77446251952460
H         4.46251463809047   -1.95092905535529    0.26212595576485
H         5.64783247296409   -1.95157669098998   -4.47547930725173
H         7.35406658576829   -1.86909128496417   -4.87289595571855
H         9.39738183664038   -1.38329131784335   -0.79642637623952
