32
 energy: -49.228511157251 gnorm: 0.289812376657 xtb: 6.4.1 (79825abcba525fcdf90b791dcacef51065a7a4e7)
C         2.24064455370386    1.04020367783179    1.84786955651239
C         3.38222508452643    0.78620776063407    0.82831267374230
C         3.68665129050564    2.16086630074354    0.14817604057400
C         4.51171555438380    2.18860700231453   -1.20379473728674
C         4.44830548477939    0.56918696814422   -1.42622625534238
O         2.99000260479159    0.41551296888768   -1.33211015237763
C         2.98386735465758   -0.35397748668887   -0.09816546194216
C         3.94955283490839   -1.50391460981634   -0.47184792583305
C         4.73081602804447   -1.06946683680322   -1.74903270668851
C         3.80462481652438   -1.44301996445592   -2.89490274994959
N         3.24889944878331   -1.82949901225003   -3.95878404528410
C         6.14724717284877   -1.43439254827924   -1.91849774372459
C         6.98653869946783   -1.62177146541477   -3.00086065547546
N         6.57689071075118   -1.72721656440598   -4.27688984624520
N         8.30578216982311   -1.77701028687574   -2.75594253468581
C         8.58665184371006   -1.61152411937589   -1.48454285466097
S         7.18719967119226   -1.30733972420834   -0.54346838087831
H         2.48595856265793    1.91890837097369    2.45760485634360
H         2.14550425861724    0.17591244252635    2.51769741841631
H         1.29727579870419    1.28921504832945    1.34265102487202
H         4.21814574740892    0.37789516069965    1.39635710055399
H         4.33788669145935    2.75350494187359    0.79795169631871
H         2.75011944232183    2.71866685133800   -0.03409553172007
H         5.56800880590734    2.45290064184129   -1.06917806183277
H         4.09420719175930    2.71612750044530   -2.07652805448796
H         4.96177789565431    0.29257638088263   -0.48396940961336
H         1.99245256597173   -0.75383637319445    0.15337715169660
H         3.40356801173064   -2.42773333003884   -0.68769596779182
H         4.71648706051839   -1.74677588414707    0.27422038237708
H         5.61641222003105   -1.67602380548870   -4.60573202925770
H         7.30283967118660   -1.92053752517952   -4.96092723464794
H         9.57661066639030   -1.64157257171011   -1.04926136264917
