32
 energy: -49.233682909610 gnorm: 0.277194866822 xtb: 6.4.1 (79825abcba525fcdf90b791dcacef51065a7a4e7)
C         2.56039612541362    1.04226842665288    2.01769316891571
C         3.46643031254995    0.83161754004882    0.77594257951688
C         3.63841347019049    2.19323179110939    0.02669249999807
C         4.38553120904995    2.22197563434555   -1.36984408990894
C         4.39660923564508    0.58846281120370   -1.45662534819544
O         2.94306711090509    0.38798846998316   -1.37822791501745
C         2.96368543443074   -0.30664753904757   -0.10079752502396
C         3.92879541639402   -1.45296843331512   -0.48687205577749
C         4.70254516962741   -1.04631843314144   -1.77771096954907
C         3.96104676245592   -1.60699892674645   -2.98029474459465
N         3.43584259029863   -2.08749435599358   -4.02112367398350
C         6.13955915195592   -1.35305524354918   -1.87294597976598
C         6.96559104886588   -1.50885804365441   -2.97041005362867
N         6.57976402879454   -1.37088673429547   -4.25075456502652
N         8.25736649686822   -1.81413124075934   -2.72018658930330
C         8.45583347303277   -1.90026801368458   -1.42561256314734
S         7.12208978807899   -1.43953318605733   -0.45326134124812
H         3.01796805293594    1.79548293958275    2.67143154552203
H         2.38709545178433    0.05467081188842    2.46416624477020
H         1.59023150335481    1.44524262635252    1.69584004128157
H         4.38276368207488    0.52279619660287    1.27905244638756
H         4.05230158806906    2.85998346788964    0.78936892933877
H         2.61912189467556    2.58002704838745   -0.15466459700053
H         5.35522823913260    2.73403063915258   -1.33497943097439
H         3.76074049228875    2.64348757297389   -2.17372144133798
H         4.92343163375545    0.44644672228648   -0.49210221072476
H         1.94543200636131   -0.61363760305896    0.17302934333534
H         3.35072053705885   -2.36517744687309   -0.66529565424173
H         4.72016620685416   -1.73078899447494    0.22047201405886
H         5.58407048304371   -1.31144118672854   -4.44655396375454
H         7.22761573692202   -1.59848173028004   -4.99960082151710
H         9.44782431021443   -1.96427887333383   -0.99870724825138
