32
 energy: -49.191842896571 gnorm: 0.293452304451 xtb: 6.4.1 (79825abcba525fcdf90b791dcacef51065a7a4e7)
C         2.67116486106903    1.15134739291159    1.92244915736586
C         3.74849095179531    0.84216236089189    0.84960742611390
C         4.01360216548903    2.08473162119724   -0.06181175984441
C         4.28913283332334    2.00517127886855   -1.61972015650237
C         4.34716005791811    0.37044613866030   -1.63773136618279
O         2.91239169165767    0.30808813067405   -1.32681008446553
C         3.11438062626284   -0.25057270427214    0.00054489572168
C         3.76632868114483   -1.54500680925389   -0.54162342528944
C         4.60200140638792   -1.29269237820496   -1.83325282857135
C         3.89580557132735   -2.14470288148930   -2.87524887486400
N         3.29393583010236   -2.89234217725694   -3.69306818604175
C         6.06388775363071   -1.43293243445722   -1.93996461854461
C         6.93885963568448   -1.17930345343170   -2.97973726168194
N         6.63408802004546   -1.02498842977638   -4.27992254699069
N         8.22173991539280   -1.11547728211925   -2.56184765012180
C         8.40696506152193   -1.31630094118097   -1.27806725800115
S         6.92965348045787   -1.58137916758572   -0.45108495933601
H         3.17342700935189    1.59133163385869    2.79321011109453
H         2.15106362872247    0.25284356716350    2.27868778879753
H         2.05006897372348    1.92322445721192    1.44743049277414
H         4.68415315555467    0.59044426478403    1.34893822078225
H         4.93392695698274    2.48365384814682    0.37568091945429
H         3.30911673637171    2.89683161811916    0.19441110644126
H         5.17452137488468    2.64664606771209   -1.71096391401342
H         3.45635804251462    2.30638975941520   -2.27547020382556
H         4.93557597586099    0.24265200183962   -0.70743536009484
H         2.13035880023558   -0.66288749255251    0.26085559509899
H         2.87062641428926   -2.14186518235057   -0.74064191766290
H         4.39484365654794   -2.13588218412594    0.13633146656557
H         5.63082999820986   -0.89373126733851   -4.37750184276021
H         7.27305771499390   -0.44667828967976   -4.81802769168605
H         9.41271130560055   -1.30593925163401   -0.87962217261142
