32
 energy: -49.225424091184 gnorm: 0.286403646872 xtb: 6.4.1 (79825abcba525fcdf90b791dcacef51065a7a4e7)
C         2.33709567785621    1.50328259803745    1.69283350162165
C         3.39753065821319    1.09409829827132    0.63677378183038
C         3.45952767530463    2.25905209340041   -0.40437283709899
C         4.12858722148443    2.06794197373282   -1.82745463898788
C         4.37129495741010    0.46098188459018   -1.64093365477930
O         2.94843763690737    0.16011407343185   -1.43098976716115
C         3.10583822619278   -0.23729478319200   -0.04100273268656
C         4.21112996292576   -1.31688419637132   -0.12678906656929
C         4.83904867412707   -1.16422602523080   -1.54549678273561
C         3.99446033941368   -2.03435995566664   -2.46197249845341
N         3.21698339758223   -2.79531988663171   -3.09955365672621
C         6.27134479353982   -1.43576341545701   -1.75276867951894
C         7.12301587787986   -0.74672102131877   -2.59592201562763
N         6.85706835386653    0.37291002930339   -3.29081687496919
N         8.33905396793841   -1.33365107978850   -2.63130267242309
C         8.45087020022948   -2.41103987476020   -1.89004623399057
S         7.02248507606590   -2.81737259800552   -1.03492907672594
H         2.73888715346132    2.37453605590537    2.22533613893038
H         2.31554211989586    0.72357940644015    2.46505028259255
H         1.31440062105402    1.68707200602422    1.33574344413907
H         4.36063882086638    1.01070640618649    1.14038619652115
H         3.94714853333103    3.14735258515321    0.00876714380165
H         2.38382143703783    2.47023831833368   -0.54477494158004
H         5.10620953789550    2.55632911761527   -1.92472133897174
H         3.45462135035477    2.34458320497793   -2.65419170739589
H         5.02277846192449    0.79313761346132   -0.80831302878061
H         2.15942371599078   -0.65349857786325    0.32931885143070
H         3.72474210301096   -2.28571746253663    0.02460374085211
H         5.05730306656799   -1.21912022520433    0.56474611701244
H         5.85455276874798    0.54014234483728   -3.30732970800898
H         7.42612648625116    0.53118205562249   -4.11749991196019
H         9.40852768249860   -2.88656768096719   -1.72525299652638
