32
 energy: -49.233810747572 gnorm: 0.275640748067 xtb: 6.4.1 (79825abcba525fcdf90b791dcacef51065a7a4e7)
C         2.19276906575196    1.25680496472706    1.84248177874167
C         3.34477835634934    0.99957761768969    0.83554337119303
C         3.36506156996914    2.23787391254599   -0.11900266397712
C         4.17989996068685    2.24212495788246   -1.47743775353723
C         4.43575513851422    0.62688807103832   -1.51700759258435
O         3.02439781124783    0.25336282676573   -1.35066391020494
C         3.13650133405618   -0.25932299650700    0.00556569727206
C         4.22449901321022   -1.33190787886364   -0.24012747978956
C         4.89201584623762   -1.00174223972811   -1.60970037967233
C         4.01018551020556   -1.47929655777991   -2.75193826844669
N         3.37738287721417   -1.71870891655033   -3.81602600093675
C         6.27255112307449   -1.47411355021828   -1.80757418078655
C         7.02337137777187   -1.38217554351050   -2.96465971891524
N         6.56468485386221   -1.01017197720570   -4.17230232096442
N         8.29591827153304   -1.81994727332066   -2.84860960723232
C         8.56766543201309   -2.19525964115601   -1.62059303597727
S         7.24344072881887   -2.12711312224384   -0.53505138134731
H         2.43582162061781    2.19128280875401    2.36378270056570
H         2.15701063824060    0.42197736615590    2.55417314098642
H         1.21821117004744    1.43125083982911    1.36603390168030
H         4.25854060121088    0.90084639640430    1.42158749033093
H         3.68175805087911    3.11508321469490    0.45348636409474
H         2.30809351228194    2.33876454573430   -0.42575319518646
H         5.14194208890737    2.72348907909713   -1.26181833349620
H         3.54524881425690    2.57756004932250   -2.31347349919432
H         5.00964544157379    0.68873383729646   -0.57104759557083
H         2.17905436279620   -0.71105711542359    0.29761994252494
H         3.78339738661553   -2.32575009037044   -0.36597597974910
H         4.96058235404131   -1.28371891548007    0.57205892785214
H         5.56485438206333   -1.01169553618739   -4.35564222175456
H         7.16418158174147   -1.10019135136937   -4.98764410144239
H         9.53873248198276   -2.55453155670084   -1.30699483235303
