32
 energy: -49.226708910396 gnorm: 0.280212057306 xtb: 6.4.1 (79825abcba525fcdf90b791dcacef51065a7a4e7)
C         2.16913870417109    0.86679397544832    1.87164945733295
C         3.37529879050495    0.73107844967055    0.90522542322148
C         3.63251702084263    2.14124112602334    0.28054369277982
C         4.36314445830132    2.25090019560406   -1.12070004242779
C         4.36576105645454    0.63126053225009   -1.35043547727865
O         2.92791531075338    0.32868699704053   -1.33740889306774
C         3.03587812612765   -0.38364096300339   -0.07419647613191
C         4.01362347207858   -1.47293328240217   -0.57619119581003
C         4.79641938938936   -0.93985167088092   -1.81448540891602
C         4.05878065152317   -1.23764421093018   -3.10970699544896
N         3.46876827785893   -1.17640390046910   -4.22244019660067
C         6.21067490480940   -1.33511905666585   -1.92316566520755
C         6.93604095536985   -1.91657637105616   -2.94628935753575
N         6.42082919028696   -2.49526059095846   -4.04486209312304
N         8.26414826305314   -2.07285340598493   -2.75603745636362
C         8.63548743945521   -1.61121056877697   -1.58483136859689
S         7.33884651455971   -0.97184521472210   -0.66474987659398
H         2.36327318831840    1.73733535641809    2.51082669622503
H         2.11951403948109    0.02674719826714    2.57633320517190
H         1.23977487194921    1.08989630261982    1.32970365351860
H         4.23340940860329    0.50558408432570    1.53843586397266
H         4.14357141236996    2.73187338945632    1.04703795012146
H         2.65128956368105    2.61004100494754    0.08337464340906
H         5.30969221444721    2.80377277442198   -1.16660711377907
H         3.73278931527969    2.77037275570394   -1.86033184456481
H         4.80678722694522    0.50753287432283   -0.34137518562433
H         2.08475527334706   -0.84940689209024    0.21647777048882
H         3.46056524103841   -2.39021435815559   -0.80169696191130
H         4.64007030065241   -1.68826628738155    0.29844226508038
H         5.45576426343295   -2.33062837777915   -4.31839954371495
H         7.13277013444493   -2.43478415664519   -4.76719493499597
H         9.64616086033322   -1.51619319966587   -1.21079621772921
