32
 energy: -49.232058812813 gnorm: 0.281874230402 xtb: 6.4.1 (79825abcba525fcdf90b791dcacef51065a7a4e7)
C         2.25727232842768    1.33460949062597    1.81251831044659
C         3.34508199891993    1.08879411748595    0.73387972674537
C         3.26269018195092    2.27616978204228   -0.28017050727793
C         4.05674226281822    2.14550023818459   -1.64462363341214
C         4.39157560854834    0.56099482050836   -1.41387034376955
O         2.97723284890336    0.18215835775335   -1.29042673110981
C         3.13818557692507   -0.27108263834761    0.08195788023923
C         4.22882378582417   -1.34571479870691   -0.14213236028049
C         4.89836769596816   -1.05186549009040   -1.51896987679276
C         3.99434903327759   -1.54823172256188   -2.63555444564000
N         3.60448129505253   -1.99033837031880   -3.75026742266240
C         6.31784533050994   -1.39970887400798   -1.69856552563432
C         7.05025208001875   -1.15355095880975   -2.84487143872504
N         6.71990237177957   -0.36457894957466   -3.88196973881903
N         8.25321277456299   -1.76196580131431   -2.92974940702385
C         8.48281235890593   -2.42043450676825   -1.81779905267494
S         7.23065734043336   -2.42498469366150   -0.64788332747474
H         2.37029178308298    2.34970410620156    2.21362622704835
H         2.35717022846728    0.58539917161115    2.60839812994755
H         1.25985187662079    1.25983006419966    1.35781234497858
H         4.30496300202201    1.14680782252767    1.24712418541683
H         3.61062637649740    3.12532042952635    0.31600068556231
H         2.17615082431879    2.41679177720718   -0.42547694823054
H         4.95557382371724    2.77329390794889   -1.68591698525040
H         3.49597427255772    2.26691051201481   -2.58539637990158
H         4.96494813768362    0.84029328190025   -0.50764101245851
H         2.19139833644214   -0.71342522613217    0.41958349479659
H         3.71966897894348   -2.31316426773207   -0.19629636937262
H         4.94266994096140   -1.33974464633999    0.69103967859617
H         5.73071577675061   -0.19327260750232   -4.04147157056103
H         7.23411399289786   -0.58469356671067   -4.73015486171471
H         9.39863823554621   -2.98595495686016   -1.70898294934537
