32
 energy: -49.230674525948 gnorm: 0.277817942852 xtb: 6.4.1 (79825abcba525fcdf90b791dcacef51065a7a4e7)
C         2.47531837395483    1.12562979182650    1.91816738262747
C         3.47078962951352    0.90082733720291    0.74952838562522
C         3.59539722076397    2.20567658587968   -0.10299061254639
C         4.43710659268067    2.08671572198529   -1.43966529852642
C         4.44011567120394    0.45104956223474   -1.46426267469547
O         2.98322964396107    0.26833201166491   -1.40753320554867
C         3.04815350469817   -0.30769434395942   -0.07383487739452
C         3.97165382115760   -1.51193825420524   -0.37630170278578
C         4.72923901681684   -1.20083137119701   -1.70279903177463
C         3.91456894560686   -1.64895423152127   -2.90525020027729
N         3.33454409539159   -2.04059686035382   -3.95416743344698
C         6.18063528599243   -1.41708461197610   -1.82465864325576
C         6.95675448838878   -1.32532819593916   -2.96494384313723
N         6.50293362603094   -1.11783300702330   -4.21321184470232
N         8.28069406339666   -1.44772515087984   -2.72684659448549
C         8.48770874323799   -1.67448579070008   -1.45073722274173
S         7.12356223009040   -1.76093665355251   -0.41717723997371
H         2.94514486805700    1.87703287285069    2.56526437050495
H         2.30881463067368    0.18439305451854    2.45767668485323
H         1.54551121454955    1.63073655832907    1.62232479697220
H         4.39615858668638    0.71582287859200    1.29507640990397
H         3.98015983115661    3.01630386699469    0.52340994058063
H         2.56882687669282    2.48884584314241   -0.39866743549724
H         5.46239787884447    2.47719081201358   -1.43373301909462
H         3.84582781208159    2.55177416251823   -2.24487620377765
H         5.04289425822825    0.36988601191891   -0.53793349667296
H         2.08315123889973   -0.67099536101813    0.30411630394948
H         3.24640483773481   -2.32299770420867   -0.49599843334601
H         4.60919283988131   -1.72888101541493    0.48987810064013
H         5.57909699186360   -1.30115689961916   -4.59556643447961
H         7.23558186413451   -1.03352126022034   -4.91206814175875
H         9.45576734856246   -1.97776868169887   -1.07487370408687
