32
 energy: -49.233911896776 gnorm: 0.281308367134 xtb: 6.4.1 (79825abcba525fcdf90b791dcacef51065a7a4e7)
C         2.29380033573112    1.37241214966854    1.75949068645766
C         3.40312746928150    1.05998744703865    0.72074125294789
C         3.48184407820499    2.26658253155388   -0.27066141625423
C         4.24244518352137    2.07678870778461   -1.64717506701210
C         4.39710789864300    0.45516441132638   -1.49740209471609
O         2.97317847139133    0.11835390050359   -1.36284913296180
C         3.11199376283561   -0.26625666405479    0.03270728990044
C         4.15177944889025   -1.40213367360803   -0.11951478604284
C         4.79549346828995   -1.19098466013989   -1.52356832623477
C         4.01008208187368   -1.79209439102093   -2.67777207619971
N         3.50822206225964   -2.26169930498540   -3.73496074954103
C         6.23243540988400   -1.43573568850461   -1.73204172004175
C         6.97556443703252   -1.02512146207508   -2.82299809370160
N         6.55426547874368   -0.24768321720116   -3.83555801794231
N         8.24577320536520   -1.48262709383930   -2.78121774378772
C         8.49312116355322   -2.21644303133306   -1.72147072211964
S         7.17811855190800   -2.37915335030887   -0.63477426926275
H         2.39967324712672    2.27653102412285    2.37222066231574
H         2.30077221566058    0.51064005327560    2.43921167805772
H         1.34307339371246    1.40753619983607    1.20987116539381
H         4.36609578018756    1.12551750316453    1.22725368832878
H         3.90076763897869    3.12572961255799    0.26216674673770
H         2.43236407715328    2.48342490746192   -0.54089722873690
H         5.26653822369136    2.46946624329667   -1.61949821176870
H         3.69202288708244    2.45993693619267   -2.52152469783301
H         5.02027592128591    0.60042086227899   -0.59264938157793
H         2.14988768192295   -0.65668505814759    0.39045252894459
H         3.56222734658339   -2.32040926489497   -0.03390472816992
H         4.90566454291327   -1.37716007196599    0.67724189052524
H         5.58745443146448   -0.32888720370664   -4.13880564792888
H         7.17523043874908   -0.13107983735610   -4.63122641980918
H         9.49638042749548   -2.61955509412687   -1.68455360661803
