32
 energy: -49.226502428244 gnorm: 0.279858054740 xtb: 6.4.1 (79825abcba525fcdf90b791dcacef51065a7a4e7)
C         2.17126770153061    0.99695842230882    1.89757353808047
C         3.32111188766051    0.89021758319062    0.86138773780045
C         3.39638467276932    2.24440639239148    0.08327853310621
C         4.11982698733919    2.34731682405440   -1.32219869185650
C         4.38554359404426    0.73667111123478   -1.42818408470187
O         2.97272029097532    0.33557599520872   -1.38155952265194
C         3.07177072371267   -0.28686658461040   -0.07101499879033
C         4.23508382752406   -1.26176873817235   -0.37236336014935
C         4.87837431555336   -0.85501702558006   -1.73289575977027
C         4.19539615069625   -1.57685873724970   -2.88305905771175
N         3.39479263263980   -2.05711699068432   -3.73065929351240
C         6.30259587123040   -1.20552615296703   -1.86290603626039
C         7.01569758978712   -1.48460973650895   -3.01383127475229
N         6.53318185365998   -1.15283747061135   -4.22390828789789
N         8.23348898829389   -2.05759975236320   -2.89914095488446
C         8.55828268835469   -2.15189901246363   -1.63093462445787
S         7.29881132384964   -1.72630618289706   -0.54963063314428
H         2.44257219753609    1.86487188861495    2.51173811070218
H         2.11113538458548    0.05755526693805    2.46204337428606
H         1.24097653671068    1.15736306111534    1.33541187444554
H         4.28251194892984    0.75436360114966    1.35677710278068
H         3.92277012242018    2.96347465187854    0.71841293276581
H         2.38666692580424    2.64906868690049   -0.11210514646550
H         5.10152062622923    2.83681515132568   -1.30226902507974
H         3.44628092030952    2.63833078850670   -2.14433074685729
H         4.89547141417718    0.71558466908597   -0.44454580276608
H         2.20237963743652   -0.90743267023446    0.18417311429020
H         3.83033472308373   -2.27524883588894   -0.45702201763049
H         4.97563141011550   -1.42581078147806    0.42039581466754
H         5.52360419848802   -1.08250725038115   -4.31921535063193
H         7.05885822962510   -1.54442086967077   -5.00018712220315
H         9.53829439135336   -2.48613782396476   -1.31748153719079
