32
 energy: -49.208901443039 gnorm: 0.291246102019 xtb: 6.4.1 (79825abcba525fcdf90b791dcacef51065a7a4e7)
C         2.15053863231687    1.35054699903110    1.69208973028174
C         3.30177461355892    1.10708102698762    0.68085469044605
C         3.14726531096942    2.21652387312076   -0.41011309160544
C         4.12597861342390    2.10310857081307   -1.65050932104919
C         4.50121883561461    0.52305561019121   -1.45392532899442
O         3.11746169417951    0.03579062997345   -1.37079980729078
C         3.15809141297954   -0.27083139046091    0.05015229056226
C         4.22648072457775   -1.38409340304233   -0.06704148167197
C         4.96078705989359   -1.10679195748170   -1.41396987560281
C         4.09553298922413   -1.69115127381642   -2.51861907820069
N         3.28743676815669   -2.12953843208193   -3.38165868105228
C         6.35061651729676   -1.49543923994113   -1.70636296150816
C         7.05632808740053   -1.08733210084800   -2.82280836896557
N         6.51839621835005   -0.22730607720730   -3.70494508498802
N         8.32996946357520   -1.52755781166671   -2.91514624825626
C         8.59029758237290   -2.38704186294745   -1.95793831390543
S         7.37800054663530   -2.50707257551501   -0.75272288845476
H         2.36715545006597    2.30313915355547    2.19181303147898
H         2.09444583321732    0.51761709475381    2.40469182952357
H         1.18232274645802    1.38483730562018    1.17384344871880
H         4.20480550298661    1.43487114570572    1.19587493566182
H         3.24155150240858    3.26373261147498   -0.10679728327937
H         2.09708655323776    2.13599159470938   -0.74491961982597
H         4.97545356087929    2.78363545361803   -1.51265548906025
H         3.67312935848498    2.26833118324237   -2.64140971420556
H         5.03739196143307    0.78053426211081   -0.51891815520177
H         2.12504163262205   -0.56494600621055    0.27899468279722
H         3.71145350829028   -2.34042824149193    0.06824141986139
H         4.91949818828258   -1.29619074653368    0.77900079594698
H         5.53393499979009   -0.03738769759085   -3.53748184800973
H         7.12046215090486    0.39868731750099   -4.23213662246630
H         9.51063228671151   -2.95447867492962   -1.99523248380725
