32
 energy: -49.230574193314 gnorm: 0.281162650594 xtb: 6.4.1 (79825abcba525fcdf90b791dcacef51065a7a4e7)
C         2.48313171677228    1.02898161368826    1.92195867105831
C         3.50180080198277    0.81590170184990    0.77125170753958
C         3.83224480050187    2.18191643727172    0.08586294107106
C         4.59032604917138    2.11574623093656   -1.30347499127503
C         4.47997269168152    0.49654943293875   -1.50851574168379
O         3.01096242205114    0.46959541012831   -1.48843751730778
C         2.97043742841405   -0.22039037699126   -0.20896495465086
C         3.81405188863915   -1.47949504142401   -0.52123486757108
C         4.67476506650786   -1.16369579948285   -1.78209237427166
C         3.90852865560058   -1.64612136757674   -3.00296810584555
N         3.13875896131453   -2.08345685732075   -3.90087256419257
C         6.09258449061244   -1.56029625422509   -1.80783156618703
C         6.89561271022052   -1.45519196140459   -2.92815712517826
N         6.56533396051332   -1.32507336950925   -4.22475487650268
N         8.21953966838509   -1.52433756758660   -2.66946114726003
C         8.47373805032418   -1.56589708104270   -1.38245431697845
S         7.07833109240048   -1.59500689823369   -0.38816676473548
H         2.83777353041347    1.78307282417249    2.63585899076698
H         2.36078570372410    0.09634862405259    2.48759772486564
H         1.57728903909080    1.32872152715054    1.37716323880774
H         4.44648389005036    0.47568883464126    1.19549936144447
H         4.47779961757897    2.77645030152006    0.73956392034127
H         2.86818760052234    2.69102628246944   -0.09540250811119
H         5.63426359554432    2.43869789314940   -1.40158119329274
H         3.94026850545806    2.58635963154008   -2.05859270831211
H         4.95060642935802    0.26181673059696   -0.53310826864312
H         1.93526623146222   -0.50816651872184    0.01834448751251
H         3.18908613262390   -2.34019565103743   -0.77958171406902
H         4.44829707100118   -1.70769294137690    0.34447084769421
H         5.65185847416347   -1.39204589822513   -4.66561088822061
H         7.38850805326063   -1.28695909283309   -4.81907276254286
H         9.50203976501350   -1.51047654568501   -1.05091924180014
