32
 energy: -49.228435627387 gnorm: 0.286214145770 xtb: 6.4.1 (79825abcba525fcdf90b791dcacef51065a7a4e7)
C         2.56013401264768    0.95652362759672    1.93542498436365
C         3.65610552948909    0.72561908023563    0.86176498401613
C         3.79261647420692    2.11859042594223    0.16466897182285
C         4.49007912957163    2.21579292067580   -1.25428243367697
C         4.38443085922917    0.60869701127831   -1.54081174038767
O         2.93699843146488    0.48992697922796   -1.31730811015903
C         3.07449351698269   -0.29818972223344   -0.10291942931649
C         3.80636147984485   -1.53951336344923   -0.66685854030178
C         4.64553255170215   -1.03059079759117   -1.87810076952880
C         3.90993508937228   -1.38410543046020   -3.16040885654072
N         3.19571437881986   -1.91877271735171   -4.05150919695492
C         6.08492652134180   -1.33662528483917   -1.92962027864849
C         6.98308564601603   -1.58910741710505   -2.94971515529821
N         6.67355695788682   -1.82474730088116   -4.23651213788474
N         8.28020032396635   -1.73829535665938   -2.60370390595852
C         8.42518385958319   -1.60156320442089   -1.30639334701431
S         6.99059432495339   -1.18942339888965   -0.46454458145980
H         2.94320039133410    1.63245827032092    2.71031242450840
H         2.31468591784646   -0.02826642029955    2.35335341638296
H         1.63075086477479    1.37484490006198    1.52499677773560
H         4.56961421910666    0.39460481206735    1.35581805009356
H         4.30521559956467    2.83511036775169    0.81380518154215
H         2.74030592867788    2.44650593724628    0.08361209668759
H         5.56053964574611    2.43937503683736   -1.16566228601022
H         3.95671969595276    2.85113724753474   -1.97962362961154
H         5.04071803026322    0.40554504652114   -0.67131089175139
H         2.06338127363555   -0.60207108752780    0.19935899758146
H         3.01625022082622   -2.24880715275799   -0.93286106978629
H         4.51414136884995   -1.93279347956125    0.07352379591074
H         5.73026754952945   -2.11368218232259   -4.48145813150742
H         7.36150096202621   -2.21576532362890   -4.87378757833918
H         9.38223913151854   -1.84923340432875   -0.86696640484860
