32
 energy: -49.228581954814 gnorm: 0.281291439982 xtb: 6.4.1 (79825abcba525fcdf90b791dcacef51065a7a4e7)
C         2.69172055389612    1.15150647820785    1.96621407097857
C         3.60882074349455    0.80254966949268    0.76439351191731
C         3.85140917718707    2.15405253425751    0.01637071102529
C         4.41484950667170    2.07604682371849   -1.46206618896789
C         4.31151192162610    0.45367467448520   -1.64440597292731
O         2.86977659498010    0.33448186793586   -1.38689258860711
C         3.01236684863057   -0.30729143581930   -0.08975429778281
C         3.86937815079811   -1.50261642055929   -0.57066199841147
C         4.66057417900956   -1.18752027956411   -1.87643428418083
C         3.89878215211650   -1.75002442281300   -3.06540536017648
N         3.06370831055466   -1.96610959527881   -3.98518740559574
C         6.09359196080345   -1.52574901123665   -1.86134439323064
C         6.99711698440634   -1.42048297189772   -2.90230173336280
N         6.69698999526517   -1.12736520789864   -4.17948081334200
N         8.30240411423967   -1.48007191328899   -2.56001241167388
C         8.44223084621047   -1.62076713436620   -1.26255954841093
S         6.97543166692973   -1.60527026001722   -0.37662743430472
H         3.13409605917509    1.91709983089981    2.61602078567641
H         2.43530849198132    0.28571652155865    2.59021806488518
H         1.71021340808169    1.53379459113794    1.65364958807496
H         4.53201494336026    0.42519974727611    1.20425315790768
H         4.50889910969413    2.80339610186770    0.60254169840223
H         2.83526207853847    2.58866772368641    0.01305514781085
H         5.42879809443272    2.32225333454861   -1.80121043841332
H         3.71241834060503    2.59538045662074   -2.13373395153729
H         4.92773669129041    0.37691235256875   -0.72658797453782
H         2.05309495010513   -0.64983674418478    0.32076273283891
H         3.19628766285418   -2.34363405197464   -0.76500542512635
H         4.60122900645719   -1.74045080271911    0.21139730474076
H         5.76504230236424   -1.28844091586682   -4.55204614587800
H         7.45711788102455   -1.32476324785795   -4.82409049944988
H         9.40636205983122   -1.76967763318185   -0.79494001859679
