32
 energy: -49.225785390504 gnorm: 0.278828685524 xtb: 6.4.1 (79825abcba525fcdf90b791dcacef51065a7a4e7)
C         2.52134695303778    1.02489404339612    2.01782887916170
C         3.51026785313143    0.80083764568738    0.84349908943432
C         3.59727154301300    2.17433610399126    0.10128645160700
C         4.32321285590748    2.31021375392735   -1.30009573851297
C         4.35054007152315    0.69430174829810   -1.55327443267376
O         2.91548140247998    0.39537603323402   -1.45143702376310
C         3.02724869321187   -0.24557727519074   -0.15087574899446
C         4.02440924964968   -1.36861008259927   -0.52371694054281
C         4.76301307031322   -0.92622912937263   -1.82336361461863
C         4.03519398018891   -1.45529249190038   -3.04841934964910
N         3.39503326318212   -2.07003826902482   -3.94414364767112
C         6.20763965630976   -1.19600912721780   -1.91522829388738
C         6.98602886206478   -1.59837895184149   -2.98445200829135
N         6.60631515178292   -1.47416514151125   -4.26802867495163
N         8.23106873439719   -2.02901937933016   -2.68627111685970
C         8.42139403784554   -1.99733191547092   -1.38800197117974
S         7.10522774294866   -1.41975036234335   -0.45487736556580
H         2.94833441662304    1.71200403173420    2.75920571062725
H         2.39448287229572    0.09338772884017    2.58432854434081
H         1.52209200627684    1.32799662889187    1.67604618628199
H         4.38518611592799    0.47519242597614    1.40619814578332
H         3.94106453032485    2.89721933330572    0.84746520136015
H         2.55426241814857    2.39363875235811   -0.19110814072572
H         5.33190611819338    2.73978766375877   -1.34171737441282
H         3.64851606585561    2.80374323504051   -2.01805635043406
H         4.90271846627030    0.62412887648380   -0.59505207531978
H         2.08308656917677   -0.73442377921304    0.12417166118278
H         3.39659401968131   -2.21665267122624   -0.81492586235787
H         4.81424423396692   -1.51829679162841    0.22297055027689
H         5.63970299063086   -1.38929805380253   -4.57090706281456
H         7.28271489703628   -1.96202668185943   -4.84833595564036
H         9.29739290223461   -2.42869986485013   -0.92223481929626
