32
 energy: -49.228939259244 gnorm: 0.277565885016 xtb: 6.4.1 (79825abcba525fcdf90b791dcacef51065a7a4e7)
C         2.50505100025916    1.07671734447385    1.89257315544843
C         3.56884390677255    0.77689437520713    0.80368973228542
C         3.91614233066256    2.11575958638374    0.07446342616128
C         4.45799387225864    2.08794945172585   -1.41380707065951
C         4.38536300374774    0.45943252384246   -1.55046440452868
O         2.93233019767950    0.35109484857537   -1.36051851964850
C         3.03533032371804   -0.33841492738427   -0.08429755777631
C         3.92309189817678   -1.54031159884906   -0.48662353021379
C         4.63660385171428   -1.19249297458831   -1.82835408862134
C         3.83963322896489   -1.65342481117874   -3.03780433077873
N         3.21091464333677   -1.87026907712800   -4.10912670746587
C         6.08745900117849   -1.43886834312846   -1.87820253828180
C         6.92852990273273   -1.51208116204642   -2.97285783297928
N         6.62061834438734   -1.35180357603186   -4.27158112991473
N         8.23048775223055   -1.53083986121086   -2.61363480434571
C         8.43479487006954   -1.53154031061725   -1.31710532089449
S         6.98959638433774   -1.41368366917968   -0.40379987088438
H         2.91499230491240    1.89858520084919    2.49303913276802
H         2.47208844550770    0.22404227503184    2.58292022432141
H         1.51217081540525    1.22303528245928    1.44538523685444
H         4.46301388689750    0.43247348466103    1.32329660318853
H         4.66814393707300    2.54355307366122    0.74455508017871
H         2.98384486059278    2.70705443707973    0.12592320996546
H         5.44212161961798    2.56755695141876   -1.48590024257665
H         3.77615620640419    2.44802005182042   -2.20101804209712
H         5.03442325344340    0.37509790238120   -0.65624756432540
H         2.01477325936419   -0.59200202384526    0.23227938242441
H         3.34479410636367   -2.46612156951307   -0.56773079811333
H         4.77633832275573   -1.76558465185649    0.16530454569534
H         5.62737502705526   -1.46247572888472   -4.45731266656848
H         7.35920739512215   -1.69050810219793   -4.88153809143401
H         9.35537892147972   -1.64395874191958   -0.76007887842327
