32
 energy: -49.230243494926 gnorm: 0.280640360567 xtb: 6.4.1 (79825abcba525fcdf90b791dcacef51065a7a4e7)
C         2.43893626868300    1.20106105586231    1.90577873697416
C         3.46006752354919    0.83915904418546    0.79513290451372
C         3.63059593053759    2.13115519970231   -0.06893494831898
C         4.38062230976011    2.10421802415879   -1.46394763283546
C         4.33677254241556    0.47340416073932   -1.58453455417267
O         2.89018778112307    0.27096746591767   -1.42474488810653
C         3.01566053318022   -0.31070309950584   -0.09783545537897
C         3.98601594123972   -1.47382105164273   -0.41423619264842
C         4.75624448151092   -1.16097570026627   -1.73302115702768
C         3.96098356279292   -1.64661603468519   -2.93389741563181
N         3.22110424874227   -2.08963215512847   -3.85387321086393
C         6.20697747105892   -1.40618229442294   -1.79144961957964
C         6.96334814096217   -1.35822840066876   -2.94757869840530
N         6.54297851345847   -0.94884388889524   -4.15707212397507
N         8.28443662037146   -1.54524990781274   -2.73725630784053
C         8.57134775677963   -1.71275088725394   -1.46747049270788
S         7.20397392612886   -1.81464960999489   -0.43959834345015
H         2.80105649170872    2.04098746528068    2.51197227638423
H         2.27579141666780    0.28961803861650    2.49516465747673
H         1.48216199689518    1.58366033155681    1.52446807334328
H         4.37606890149893    0.56741354419498    1.31977836868299
H         4.16799447393705    2.82921852059166    0.58025448074979
H         2.60235198275797    2.50948372350831   -0.21398044227354
H         5.44636517498750    2.36258081273903   -1.42975661392810
H         3.87025526366946    2.74133851951937   -2.20412159883203
H         4.92520796849853    0.51695710084959   -0.64652485961749
H         2.01735143592171   -0.65310438265354    0.20581632822631
H         3.27373285588412   -2.30431947795995   -0.44673229793428
H         4.68105955951439   -1.57760849009074    0.42833733973984
H         5.56808690947999   -1.10279129029732   -4.40030735160316
H         7.20982790617144   -1.31659745040480   -4.82964275094045
H         9.57868263939836   -1.85708202218393   -1.10026984296230
