32
 energy: -49.234233847100 gnorm: 0.275993347233 xtb: 6.4.1 (79825abcba525fcdf90b791dcacef51065a7a4e7)
C         2.48736231549597    0.81561004313101    2.00046990869788
C         3.46777524337063    0.65276398707760    0.80904726156295
C         3.71194641969015    2.07448217115377    0.20568576201301
C         4.50409353589310    2.22534452284496   -1.15779106932048
C         4.43238789075227    0.61302993350907   -1.42484502401901
O         2.97200213060451    0.45283731969527   -1.39777879093224
C         3.01084387215533   -0.38308459838963   -0.20845185165475
C         3.90370996959288   -1.54723869160690   -0.70046587537936
C         4.73583626013940   -0.98620840330272   -1.89341552257634
C         3.98958955059199   -1.25613130838338   -3.18981349867923
N         3.28028185347707   -1.39480645907879   -4.22310529327551
C         6.15627196633187   -1.37410695102151   -1.90138294181729
C         6.95033306676133   -1.95302243888648   -2.87367632334905
N         6.46234650594127   -2.43295987476943   -4.03070260096559
N         8.26635696247693   -1.88989785164723   -2.57604617995914
C         8.50057963475260   -1.38469426899825   -1.38750098924018
S         7.10600173645401   -0.81903021940744   -0.56787158237942
H         2.91133153838242    1.49907110281396    2.74693431808828
H         2.45036359465567   -0.14549671320878    2.52926597274036
H         1.47529870004206    1.06619002041503    1.65386646317297
H         4.36589808408708    0.30867413947837    1.32201367809487
H         4.18727912962202    2.72057190066933    0.95010727252202
H         2.71572210397309    2.53210616789773    0.06577981508880
H         5.54453916515455    2.55760528138174   -1.05384932527037
H         3.97187125896155    2.82218956987519   -1.91592693154444
H         4.95165546059230    0.39409292042186   -0.47067362054858
H         2.02707457609811   -0.81664581874910    0.01579520030152
H         3.23271804182582   -2.31106218867505   -1.10602022574090
H         4.58594662815872   -1.91991999382178    0.07377530974447
H         5.48773094532237   -2.19046352086617   -4.18753640560336
H         7.00947336576226   -2.81023828824003   -4.79920453845297
H         9.52579096041218   -1.26534978495395   -1.06332512667685
