32
 energy: -49.230700935780 gnorm: 0.283864378678 xtb: 6.4.1 (79825abcba525fcdf90b791dcacef51065a7a4e7)
C         2.55832356363967    1.40500181213463    1.84553840937743
C         3.50785259555707    0.90818031706804    0.72358507235419
C         3.81785729643142    2.14006134811434   -0.18817886063429
C         4.47127752276475    2.02743531939114   -1.62681813463211
C         4.42050484153324    0.39507642593976   -1.53277319980482
O         2.96213624862586    0.23680881341586   -1.44772473542766
C         2.95343873046491   -0.25919910575978   -0.08073051498732
C         3.87738349063543   -1.47628005523607   -0.32482569504066
C         4.66269073727839   -1.27680783088754   -1.65667454485250
C         3.83691635455028   -1.85504603011783   -2.79427179674418
N         3.34454237994930   -2.41006811003957   -3.81385921677946
C         6.10304902136041   -1.53890834095422   -1.81427439348491
C         6.92839845902530   -1.06026095833891   -2.81463712965181
N         6.48968112734516   -0.41970090803857   -3.91208442770485
N         8.25413939515149   -1.21570668279337   -2.60791288055501
C         8.49985554285669   -1.77920413353872   -1.44824707057018
S         7.09430690273369   -2.22116906623819   -0.57319523515412
H         2.84844572208291    2.41236964703864    2.16975626020947
H         2.46524634805210    0.74151780722089    2.71493244346450
H         1.54544551671071    1.39563496889402    1.41987732386142
H         4.44327479841430    0.63980679928379    1.21462271038349
H         4.45027328663770    2.72392498898124    0.48760940068780
H         2.90819583759124    2.74501424993504   -0.35552371683686
H         5.48908539514275    2.40912675891720   -1.77550232639987
H         3.73002463711536    2.37470951205897   -2.36451681908935
H         4.92911155593947    0.36829509977864   -0.54858964872056
H         1.96841775129603   -0.62465877007402    0.23901470019203
H         3.24806868649108   -2.36613613837800   -0.42606728431186
H         4.60917107209404   -1.58003082194296    0.48604441517362
H         5.59226653945263   -0.65830931436079   -4.32559367992292
H         7.21627816130565   -0.28456719672286   -4.60927713394139
H         9.49476072336251   -2.00720395146415   -1.08967891362193
