32
 energy: -49.232299352265 gnorm: 0.279357364498 xtb: 6.4.1 (79825abcba525fcdf90b791dcacef51065a7a4e7)
C         2.07170334369711    0.84585127119586    1.86800383111435
C         3.29614244831928    0.68456577051104    0.92888076416539
C         3.66217326870975    2.06989853394224    0.30292403526423
C         4.58767588776698    2.22659051454598   -0.97309245852280
C         4.54892459348434    0.64313348405825   -1.38196899264673
O         3.08839909348078    0.48204108919849   -1.37602470917989
C         3.00290598153310   -0.32666874214875   -0.17043272339056
C         3.96911256402228   -1.47645394694008   -0.54323458889283
C         4.79953762671491   -0.98691444926886   -1.76841346458265
C         4.06326867996543   -1.24401857211434   -3.07309570350092
N         3.46445066900965   -1.43379405191491   -4.16645858691275
C         6.21863862892543   -1.35923383346649   -1.89370101260924
C         6.85793131736374   -1.98609609009111   -2.94697170553524
N         6.31216036173367   -2.55333865264737   -4.03671964218316
N         8.19456751585158   -2.05102095105178   -2.76346217803097
C         8.56694839611322   -1.44892338459973   -1.65822845025680
S         7.31881483532518   -0.78237147416744   -0.69153984317406
H         2.23162176247691    1.61650448788587    2.63259375704707
H         1.91399529553086   -0.08611583970126    2.42593380422636
H         1.23233207885720    1.21297868772904    1.26148064541590
H         4.15826999104820    0.38076396489915    1.52268002799562
H         4.19735972018038    2.64830672587248    1.06223683899342
H         2.74954809262528    2.61027485191044   -0.00782506878323
H         5.58773967105534    2.63357522098947   -0.77824872413844
H         4.01664151779408    2.78857195804238   -1.72963139046446
H         4.97500728880701    0.42207900348042   -0.38316783560643
H         1.97682451681278   -0.71787272061671   -0.15700247449197
H         3.45368778561658   -2.41541795523505   -0.76865577819126
H         4.62802299309807   -1.70984433377494    0.30243295304679
H         5.39933689007644   -2.25157860509480   -4.36682719275877
H         6.91258441082555   -2.86503699479956   -4.79475469160802
H         9.58843962020361   -1.54963670204408   -1.31646264436688
