32
 energy: -49.224529544208 gnorm: 0.279162970204 xtb: 6.4.1 (79825abcba525fcdf90b791dcacef51065a7a4e7)
C         2.39787726538766    1.01779968303907    1.97274544182573
C         3.37466768937290    0.88170602899967    0.77500788550219
C         3.55548925164374    2.22402779834839   -0.00628788698073
C         4.27587422271456    2.27420921398153   -1.41620025547644
C         4.45770768295277    0.64928383849716   -1.46691465234180
O         3.01080179922948    0.40465614702767   -1.39114203606344
C         3.00448847268437   -0.29529044341632   -0.11646262033914
C         4.00827611148406   -1.43589094018233   -0.40969170108487
C         4.79575607283211   -0.99659779874050   -1.68138932012321
C         4.01985392883310   -1.43332967003342   -2.91331114286911
N         3.49087168199523   -1.85362091787705   -3.97800508513866
C         6.18704596752276   -1.46145859855159   -1.80938621453128
C         6.92707280850160   -1.51489617784555   -2.97580607271381
N         6.52925507587952   -1.32540552375483   -4.24585133825510
N         8.25206623978579   -1.70579919987957   -2.79570677598588
C         8.53134005206156   -1.80091775530482   -1.51676612377140
S         7.19963340764135   -1.75435530072802   -0.43926668108221
H         2.60104440482335    1.97076983717491    2.47737306194926
H         2.60013755807523    0.15486824588512    2.62017149031760
H         1.32832840676648    1.12959152439219    1.74743486139439
H         4.27986007016958    0.58789077619014    1.30647411654353
H         3.98777701314452    3.00939391782779    0.62129785007560
H         2.51859161478154    2.55903893445785   -0.19086067031954
H         5.24037009356241    2.79484903608391   -1.36710756023870
H         3.63157870660437    2.71963791992328   -2.19126870267882
H         5.07496240381952    0.53675068557681   -0.55348803107030
H         1.99562443914040   -0.65471429644230    0.12658460192281
H         3.49763072640989   -2.35813575884141   -0.70437223507542
H         4.64274088370901   -1.83105055430614    0.39348383820010
H         5.53639847861324   -1.49378455909956   -4.38427494463942
H         7.10882558940200   -1.82234428877362   -4.91624817653147
H         9.51807920740767   -1.92464557923004   -1.09082173294255
