32
 energy: -49.231814678354 gnorm: 0.284295106565 xtb: 6.4.1 (79825abcba525fcdf90b791dcacef51065a7a4e7)
C         2.62032149364754    1.36681864228993    1.84067404063297
C         3.61530636369846    0.93481896809142    0.73135097657058
C         3.65064998646664    2.20689277261173   -0.17723381325338
C         4.28841268522033    2.05948263870778   -1.61975055939784
C         4.31040821420272    0.42523398223602   -1.55071882653429
O         2.87582186013320    0.23742145614587   -1.29418564476711
C         3.06229444973272   -0.30470213587368    0.04226588278267
C         3.94147240049036   -1.52185746072209   -0.33206212244422
C         4.66910351237804   -1.22528418413855   -1.67850753360214
C         3.98149870326180   -1.89122107914449   -2.85923523761473
N         3.51940834953958   -2.31119974396105   -3.95473994465012
C         6.12079537230062   -1.43489413437733   -1.80820244229391
C         6.93549016625753   -1.00990258081984   -2.84100695523650
N         6.64927838481627   -0.41628303169557   -4.01270626619992
N         8.22088158509476   -1.33557717182873   -2.58372835589935
C         8.43044987683250   -1.90651074132488   -1.42060902334161
S         6.99472672500316   -2.21642678325643   -0.53784814093725
H         3.00747334533396    2.27314661210783    2.32312724176617
H         2.47986960011082    0.70417759201443    2.70432934414925
H         1.63669863829653    1.52339517034344    1.37681317301086
H         4.58721879164818    0.80683345729170    1.20796711603294
H         4.22682126631281    2.97929302250808    0.34138070528014
H         2.60790170672352    2.53580388079975   -0.33832320256679
H         5.34390562993824    2.34089772676839   -1.72206576943620
H         3.59056705925364    2.39369499393149   -2.40433206223741
H         4.99411199678088    0.45923049361391   -0.67927825593943
H         2.10044932553128   -0.58849774191064    0.48990201549236
H         3.25823644624826   -2.35292181446780   -0.53368429642578
H         4.63312358851482   -1.80075787469556    0.47268678865815
H         5.73993056392825   -0.54384198272423   -4.44870175477143
H         7.41909458688437   -0.44269796666566   -4.67525234117341
H         9.43550403048980   -2.18381563877569   -1.13188856918790
