32
 energy: -49.232046741412 gnorm: 0.280251275927 xtb: 6.4.1 (79825abcba525fcdf90b791dcacef51065a7a4e7)
C         2.71421564299017    1.25735899480584    1.91102311393987
C         3.63087316184378    0.93095642473271    0.70254612820641
C         3.68515409118501    2.17913363807303   -0.23769558504654
C         4.31612856657618    2.07782038277116   -1.68715493341715
C         4.29220540379530    0.44246247750229   -1.71955924883454
O         2.87274961072668    0.23869359980509   -1.39902169821578
C         3.03589599108926   -0.25631434888866   -0.04140500418989
C         3.94997137492495   -1.46733007334002   -0.34546012434798
C         4.64564969441760   -1.21412285468675   -1.71740609929117
C         3.92035719347440   -1.93210001121008   -2.84383843699836
N         3.34493185546808   -2.29866870032145   -3.90428796800333
C         6.09345076944342   -1.47910163637891   -1.76012180672111
C         6.91324664803905   -1.09224084758586   -2.80381909927882
N         6.57428111861607   -0.38079350913098   -3.89291307543227
N         8.22440024935169   -1.30427959013632   -2.55804864307205
C         8.47005285925934   -1.84618151984939   -1.38812228467487
S         7.04207417220930   -2.20988254872645   -0.51335710115333
H         3.06239631156837    2.13013000671450    2.47769675802053
H         2.75125210510965    0.41096817591870    2.60885637599131
H         1.70203956889026    1.56242420707984    1.61163733253552
H         4.58688314236118    0.71877879790757    1.18127629686223
H         4.18672352869775    3.04993790958895    0.19550705557641
H         2.63898896321633    2.47928652249446   -0.42979726080852
H         5.34078873375770    2.46572617063438   -1.62945880254011
H         3.66920874149435    2.58934222933503   -2.41797275124623
H         4.88923188694448    0.45833382743677   -0.78611252826218
H         2.07433794902288   -0.58557570960313    0.37459641971960
H         3.39391588166472   -2.41016244444050   -0.34594003593312
H         4.74003810329966   -1.52729267457166    0.41347773264763
H         5.64910756172671   -0.63646432945638   -4.22752200899764
H         7.28265103691602   -0.46637494880990   -4.61621793168079
H         9.46423559712372   -2.17454585916978   -1.11578260353698
