32
 energy: -49.230277026377 gnorm: 0.280736138535 xtb: 6.4.1 (79825abcba525fcdf90b791dcacef51065a7a4e7)
C         2.20702027485644    1.27484991523712    1.77637460559937
C         3.37142250272501    0.95684006330286    0.80156516007312
C         3.54746849651936    2.24663526268170   -0.06468157436110
C         4.27758063490433    2.17148796599620   -1.46846742541055
C         4.50119429990681    0.55134573386590   -1.43449798929379
O         3.05247200788930    0.33564968128934   -1.31702558653961
C         3.10800338659840   -0.30271317875281   -0.01158243323186
C         4.07633965443164   -1.45873015829617   -0.35870204738254
C         4.82716694550407   -1.09334994885222   -1.67516461031854
C         4.03441613238796   -1.59345160641050   -2.87175757602469
N         3.22218827525755   -1.90294997064607   -3.78528744079081
C         6.24070769870720   -1.49492043136447   -1.76902640767539
C         6.94438016100010   -1.44628462198770   -2.95793776922089
N         6.52730165257780   -0.91971116819189   -4.12238895064251
N         8.24598375953560   -1.78049022553740   -2.82147530745937
C         8.56680588337951   -2.04214378498106   -1.57594683647300
S         7.27138270486313   -1.94994449622029   -0.45791563055994
H         2.43934284635860    2.26951353209375    2.17730919949354
H         2.13609334332558    0.49343447953275    2.54388986052179
H         1.34039496589467    1.43311060237642    1.11978404519004
H         4.26390753336775    0.88108159523204    1.42276410334792
H         4.02111284136699    3.01414169921599    0.55510178462829
H         2.54839877611890    2.69072387870145   -0.22624047077603
H         5.22578280881642    2.71473859195770   -1.56603585251061
H         3.52963633126471    2.39802380017136   -2.24532995155202
H         5.05736474635830    0.52754346517735   -0.47631054675882
H         2.16961867817626   -0.77566960176617    0.30749507905759
H         3.49814837335850   -2.36540262195071   -0.56308090211289
H         4.79325834076917   -1.70756326879723    0.43369766287319
H         5.55133253494159   -1.05031945127373   -4.37478263653668
H         7.11172185101577   -1.06968395081832   -4.93985040706984
H         9.60136780192030   -2.19984183210393   -1.30171277302876
