32
 energy: -49.232291214285 gnorm: 0.283692091398 xtb: 6.4.1 (79825abcba525fcdf90b791dcacef51065a7a4e7)
C         2.71249262387424    1.29140648134221    1.94385340668720
C         3.60921005606903    0.94720504645799    0.72539557501589
C         3.67763364615597    2.18645127994389   -0.22567447462240
C         4.35063946492148    2.04564397213352   -1.65275612556727
C         4.34579706818483    0.41012721822639   -1.61990255665053
O         2.90743716078490    0.29116676245869   -1.34405836869268
C         3.05797270473772   -0.26653268419421   -0.00948612379855
C         3.83027113475170   -1.55176039230017   -0.39196132462623
C         4.65207030806341   -1.25463189454425   -1.68296045577925
C         3.93660548194846   -1.72855798743051   -2.93750992933887
N         3.43972580723991   -2.21348042510993   -3.99012617385315
C         6.09121101208346   -1.55989274169105   -1.74505880610285
C         6.88222168186232   -1.19796953087631   -2.81946297293151
N         6.51169932056502   -0.69175430317583   -4.00842889392469
N         8.20991937784434   -1.31704449789956   -2.60145540637261
C         8.47330458429539   -1.80248982510054   -1.41078263016066
S         7.09443859428410   -2.03764791596217   -0.42081043339577
H         3.08920904076659    2.15241032820298    2.51027652834714
H         2.67485560395630    0.37492292971726    2.54664834180475
H         1.72134606117193    1.50171768610909    1.51888902761038
H         4.62180461382048    0.80929530451762    1.10459231399764
H         4.15169978046622    3.01166639850157    0.31452716965634
H         2.66136542254951    2.60858526222390   -0.32793923429428
H         5.39809665053696    2.37073097579253   -1.68242248860181
H         3.74948173075929    2.54670932822447   -2.42851216563856
H         4.89311908862972    0.46345311997941   -0.65781615309156
H         2.04374110850823   -0.52815454151426    0.32059321324276
H         3.13987282963022   -2.35921019990187   -0.65560088331721
H         4.48594721454141   -1.86625541001866    0.42960387533136
H         5.57678964621050   -0.74886647106064   -4.40334523085890
H         7.28731571335778   -0.72241807980754   -4.66399047167474
H         9.45999995796057   -2.06110220946046   -1.05030623386778
