32
 energy: -49.227853900810 gnorm: 0.273581273067 xtb: 6.4.1 (79825abcba525fcdf90b791dcacef51065a7a4e7)
C         2.80979002709583    1.05709591357629    2.07939317035449
C         3.62590892077790    0.84141382433291    0.77760691373814
C         3.63810218375442    2.14531749528017   -0.08531475129975
C         4.39091669345979    2.14240597477866   -1.47908209643783
C         4.30160069760154    0.51083102874123   -1.55656577795710
O         2.86147895003804    0.34389705735111   -1.31718484962109
C         3.07221693089316   -0.31751043603886   -0.03933418046803
C         3.91856322378420   -1.51427001697836   -0.53532497750895
C         4.61179296997060   -1.12349795929207   -1.87586506225496
C         3.88531795296284   -1.43222701794854   -3.17483028844671
N         3.28265674027648   -1.56577402346601   -4.27437783206210
C         6.05022962220278   -1.43823519993172   -1.87848038950286
C         6.96609941782495   -1.55976118635567   -2.90680162192579
N         6.69804045428746   -1.68353324060033   -4.21829142807104
N         8.26377404528718   -1.63700602518376   -2.53997589592409
C         8.41126045371488   -1.61570877230131   -1.23593418694427
S         6.92687228319395   -1.48712902475104   -0.38936776679573
H         3.22182483097283    1.90532257456777    2.64047862580614
H         2.85813968511906    0.17796394055304    2.73476303843990
H         1.78447558288669    1.24750008664853    1.73345448107631
H         4.68094042086778    0.77356248485992    1.04305320472051
H         4.18003105191553    2.82351548784280    0.58094127679503
H         2.61849489720484    2.55626239510672   -0.19925137506633
H         5.37532930804736    2.60226714804015   -1.32680697416246
H         3.76511762719557    2.55696181412173   -2.28578745732328
H         4.92173964842018    0.40116709918330   -0.64474518324153
H         2.13654519444686   -0.65583399782562    0.42555254500368
H         3.25791498913199   -2.38116361665307   -0.63617250407459
H         4.67342881748893   -1.87509408268144    0.17444368285156
H         5.72478813476485   -1.81259060876989   -4.48173199720786
H         7.48141927970502   -1.92571130192066   -4.81824929213296
H         9.32316728333435   -1.67043292004745   -0.65643219418600
