32
 energy: -49.229046839953 gnorm: 0.279346664757 xtb: 6.4.1 (79825abcba525fcdf90b791dcacef51065a7a4e7)
C         2.64837561694442    1.11829038329800    1.91864670039941
C         3.62958170296573    0.83914707512103    0.74966000268542
C         3.78405840245877    2.17372900201650   -0.05032454908323
C         4.35963512602904    2.05256676788792   -1.52115992873501
C         4.37754857161501    0.41765125619891   -1.57358350046038
O         2.92917324423702    0.26008218224006   -1.38252924581233
C         3.05189450778746   -0.31760841907422   -0.05362527649960
C         3.98504238945127   -1.49685819129929   -0.41851897135681
C         4.65261851350946   -1.23787713599875   -1.80328931484599
C         3.85921753013392   -1.63144533956616   -3.03860674523449
N         3.25332324690882   -1.79235946465411   -4.13269946717865
C         6.09269704608185   -1.54389796109238   -1.82958414716066
C         6.93269790037844   -1.49546273779607   -2.92643563088073
N         6.60415938051217   -1.32689019754129   -4.21904012106487
N         8.23659100759195   -1.58575123029020   -2.58555726214628
C         8.40433910952855   -1.71017427178155   -1.28975246497092
S         6.98254405100671   -1.54492180386842   -0.34751781772052
H         3.09583367024519    1.88338427649194    2.56555524207045
H         2.44187925259749    0.23173790888438    2.53192016366324
H         1.70017454185357    1.52654876483212    1.54256579153972
H         4.62611939159261    0.66148239284767    1.15401739203670
H         4.30180384289859    2.91375352444983    0.56760738223728
H         2.76801894056512    2.56530750320222   -0.23949741146177
H         5.38025200278574    2.40538499800072   -1.71503796804796
H         3.63197755101654    2.49325743501919   -2.22156034125517
H         5.00266942016635    0.40295131453413   -0.65869381910118
H         2.04680043678909   -0.61368834970348    0.27529215548025
H         3.42373192330249   -2.43492095729416   -0.47419330847226
H         4.68086017124276   -1.69434173234834    0.40648131733004
H         5.68186848971235   -0.90853548824665   -4.30642241692616
H         7.34229150176396   -1.12722831024802   -4.88805292730994
H         9.40069693137538   -1.83297244082191   -0.88653656859741
