32
 energy: -49.230839916931 gnorm: 0.278035063523 xtb: 6.4.1 (79825abcba525fcdf90b791dcacef51065a7a4e7)
C         2.42682287110264    1.17807850199199    1.94081334923257
C         3.41917626525731    0.88913365467492    0.78367814258772
C         3.58620082378186    2.23210685542634    0.00043294752465
C         4.19982305257566    2.30540805254337   -1.45813493419425
C         4.37911226253620    0.68045549007747   -1.51646492174284
O         2.94254178984976    0.39666514215556   -1.39460785855828
C         3.03992755187878   -0.28175204069908   -0.11201718307925
C         4.08186029340341   -1.37623431676679   -0.44522451819807
C         4.77657999018971   -0.94603882063131   -1.77285940202683
C         4.06638507425627   -1.52477054440127   -2.98574151289172
N         3.55467518353164   -2.31435075087241   -3.82523911790973
C         6.20615967075471   -1.29130187796602   -1.84539708699727
C         6.98805206617381   -1.47488768943091   -2.97055091330749
N         6.57162774443624   -1.17198179966413   -4.21233166979213
N         8.28536139591168   -1.77519792030050   -2.74407887586738
C         8.44077915545235   -2.03643355101193   -1.46723438251119
S         7.08652349419357   -1.79462260473776   -0.44540525366370
H         2.79987486900665    2.02836265622520    2.52555867862913
H         2.49066715012832    0.32570173414394    2.62936119305926
H         1.36385357166748    1.35375222488455    1.72533238446709
H         4.31421150002878    0.61798466599605    1.34363096117122
H         4.22437446056880    2.85714368446200    0.63257207838338
H         2.57012454833717    2.66643753072112    0.02048663337428
H         5.17132046236325    2.81129181712770   -1.52140105983469
H         3.48486613852057    2.70431324412213   -2.19567530879293
H         4.97184094377819    0.64768862813988   -0.58072225748985
H         2.09252588429229   -0.78494848031017    0.12311580701105
H         3.57481939070352   -2.33475071196961   -0.59451173658906
H         4.81574561016326   -1.45923478213431    0.36613907967406
H         5.61426538080543   -1.23854101176116   -4.54744954306116
H         7.15292847417122   -1.58029716537409   -4.93872692133066
H         9.38539795322856   -2.29895003866003   -1.00988136750078
