32
 energy: -49.196470416337 gnorm: 0.294158788660 xtb: 6.4.1 (79825abcba525fcdf90b791dcacef51065a7a4e7)
C         1.56633247210753    0.81510477303118    1.41888634235135
C         3.01542860041633    0.67586208701314    0.88227833379530
C         3.55776031987138    2.07763936938701    0.45118204587623
C         4.62485814616508    2.21070615922081   -0.71196928601917
C         4.70021051125621    0.65324140156348   -1.20658369380541
O         3.23902623693309    0.60152178039342   -1.35282470272360
C         3.02817506970820   -0.33227999364169   -0.25814267868343
C         4.08398163486078   -1.44098839700347   -0.48304397157941
C         4.92889827747568   -0.95148043860001   -1.69828708968469
C         3.99131480436408   -1.21530777725573   -2.86521580454689
N         2.96817538263979   -1.61779788292391   -3.48265211075108
C         6.34209712367848   -1.31631275742463   -1.89305044978285
C         6.93819158044342   -1.99467887631731   -2.93972204132775
N         6.22824201445620   -2.79468465425119   -3.75405797782532
N         8.28571190163258   -2.08099828722013   -2.97472575362621
C         8.80779121847048   -1.28210635568361   -2.07365113897458
S         7.64193613922482   -0.53164426785107   -1.06657403961666
H         1.54395647719147    1.65602660668019    2.12346268371648
H         1.40629751498724   -0.03674776770710    2.09227808635339
H         0.78196994169239    0.89343069828742    0.65348611695792
H         3.61036073192598    0.28313615354715    1.70688678869153
H         3.84033217705566    2.54605736466298    1.39895534866179
H         2.75179534809920    2.67927564672524   -0.00697790043978
H         5.62484451330421    2.47919996358841   -0.34911042742067
H         4.32185911378479    2.84608226091199   -1.55975661019297
H         5.15327887271061    0.39065101898855   -0.22996163430085
H         2.03454745146615   -0.75305098175939   -0.46239749741451
H         3.71559649942899   -2.45765923260154   -0.65276030722451
H         4.91333060222355   -1.55982262285856    0.22536717086525
H         5.43740325924971   -3.25669180267387   -3.31314951143316
H         6.71040833849094   -3.50980033990129   -4.29109357216341
H         9.87516233174774   -1.14960821113251   -1.95722731889162
