32
 energy: -49.226657229644 gnorm: 0.283218824952 xtb: 6.4.1 (79825abcba525fcdf90b791dcacef51065a7a4e7)
C         2.61902828700702    0.77934008643298    2.04552125999716
C         3.52162769002834    0.65299143701830    0.78990722384584
C         3.71179862643275    2.10371713883450    0.23838459477455
C         4.59492982401850    2.22524657828868   -1.07105629864424
C         4.37046979281172    0.64643953928688   -1.43575325620065
O         2.90848017743704    0.49952369583204   -1.44684021882825
C         2.97255375919397   -0.31797786743005   -0.24585792479990
C         3.88727502356696   -1.48738249972809   -0.68211499299981
C         4.66688530867673   -0.94935890124532   -1.92028153744592
C         4.01014965089971   -1.20693202743915   -3.26666357056824
N         3.33355249577007   -1.39516745486485   -4.31395715072311
C         6.10318486683363   -1.27217471014362   -1.95190234117977
C         6.92165481898402   -1.93484475751617   -2.84745017669923
N         6.46609917800869   -2.52908813523025   -3.96392879206482
N         8.20919561517023   -2.15744786404880   -2.50514350201450
C         8.43609176030733   -1.53031993454452   -1.37467488586120
S         7.09040535609148   -0.78572099777087   -0.61882025627520
H         2.90818346941001    1.65983350000105    2.63305735729735
H         2.69179525912421   -0.11127727957435    2.68287991477489
H         1.62068159954913    0.90515610881839    1.60430560325289
H         4.44103137958474    0.29571647409892    1.25381288331008
H         4.14044022140174    2.72196877107076    1.03309700232430
H         2.71895856938591    2.51319759093281   -0.02248062672169
H         5.59650047461321    2.64790888745693   -0.92293134425646
H         4.05694179316073    2.84392565884186   -1.80730328393168
H         4.84296350544733    0.40269875791897   -0.46345936100931
H         1.94588649189773   -0.65943115337384   -0.05763445789980
H         3.25539965224896   -2.31859436514126   -1.01067423764169
H         4.54727566795091   -1.75483029501440    0.15254568182584
H         5.60649522415804   -2.16304606113975   -4.36439234415990
H         7.16571943760689   -2.80707464583460   -4.64623153042683
H         9.38934127680947   -1.55040075008203   -0.86349636656770
