32
 energy: -49.234894961557 gnorm: 0.279773398687 xtb: 6.4.1 (79825abcba525fcdf90b791dcacef51065a7a4e7)
C         2.60108775124873    1.13210690783957    2.02692753034340
C         3.54316222273286    0.82087441223663    0.83409632188416
C         3.90141312275249    2.13779327158975    0.07099196245296
C         4.50460325326250    2.10862008847703   -1.39346567127579
C         4.41497636498501    0.47922304905184   -1.50770301693439
O         2.96064055423099    0.39781562580859   -1.31430961002814
C         3.01601743417846   -0.30604072432445   -0.04297474436713
C         3.82773179021079   -1.53277010196759   -0.52338836491897
C         4.59230490705879   -1.17351454949020   -1.83361025044917
C         3.88146788191126   -1.58289467512543   -3.11326210523140
N         3.43027597757838   -1.96953428213787   -4.22545625022796
C         6.02638693003830   -1.50552188026906   -1.87030161608712
C         6.87627022900156   -1.50441094627135   -2.96058953417456
N         6.64192708840277   -1.42600867367975   -4.28199674290009
N         8.18641617881592   -1.53295942234586   -2.63319085772300
C         8.39260031034495   -1.54150783870919   -1.33698654493064
S         6.95184914090828   -1.49698493224309   -0.41023443383405
H         3.09447820342870    1.92536034021364    2.60259487337930
H         2.48209218425914    0.23156589195521    2.64303329468394
H         1.62406165541863    1.44978572533798    1.63744426781876
H         4.45175846622299    0.41544996490183    1.27933882579446
H         4.52870332242898    2.81164630626568    0.66257086752655
H         2.97720451685323    2.74194964432800    0.02313997773808
H         5.52526960272434    2.49557779561987   -1.50406468618812
H         3.81266735642668    2.58337196318403   -2.10767147042170
H         5.01169726783903    0.37294781250416   -0.57999345587879
H         2.01126462304040   -0.66782429611516    0.21324495070989
H         3.16890846798656   -2.36356499886834   -0.79516492893747
H         4.54589693730207   -1.85239004555292    0.24203278221178
H         5.69753369194456   -1.66866400361743   -4.56925328066033
H         7.40175480100960   -1.68528893503423   -4.90466650098372
H         9.33528207889587   -1.56302370912056   -0.80662863881500
