32
 energy: -49.228296827017 gnorm: 0.280833078405 xtb: 6.4.1 (79825abcba525fcdf90b791dcacef51065a7a4e7)
C         2.38962563078253    1.21701004370233    1.92014854100166
C         3.40055341649730    1.00882767200093    0.76174386975970
C         3.39843697992699    2.29857214382948   -0.12228213292914
C         4.12868951503215    2.23083040965370   -1.52637182375036
C         4.43027663378604    0.62354351871222   -1.48523911209699
O         3.01543628008483    0.24139848378489   -1.37887754632230
C         3.06723869514567   -0.25775153859512   -0.01398250741262
C         4.10469246035125   -1.37765272838474   -0.26707028725161
C         4.82744928511771   -1.01903338165991   -1.60098659752332
C         4.06017746503102   -1.55070652208930   -2.80057314312807
N         3.58790831281573   -2.11062339963745   -3.82697223029058
C         6.21867655683199   -1.45529104240378   -1.80673468955948
C         6.99394840087645   -1.26649184114092   -2.93560094457409
N         6.56758172405964   -0.75092128068279   -4.10161084616294
N         8.30694371890477   -1.52993017186925   -2.75916157159152
C         8.51804587135273   -2.07104120443930   -1.58214614058717
S         7.13488072680062   -2.27464792412101   -0.59117985248208
H         2.47369386841037    2.21759675063205    2.36268307019138
H         2.47901859040214    0.42882532554096    2.67876183394023
H         1.37954629972461    1.08862427616590    1.50728794115559
H         4.38261336185873    0.99074840314051    1.23438369804772
H         3.97747649143238    2.97350194662567    0.51546351720981
H         2.38451047708012    2.71829908503155   -0.25357807180576
H         5.07698950061745    2.78255449363960   -1.51889674675774
H         3.44468429728745    2.44611537229228   -2.36305802217065
H         4.99613528795397    0.61589458287869   -0.53247430943801
H         2.11681629851748   -0.77418825254232    0.17589768328940
H         3.48391849068870   -2.27916161988413   -0.25984390714658
H         4.80364049413634   -1.38880058067197    0.57858625557035
H         5.61389186943596   -0.96714544547588   -4.37909883971031
H         7.24989125243156   -0.84053708049571   -4.84907639957711
H         9.52640406737422   -2.35523303162002   -1.31225706468381
