32
 energy: -49.201795228325 gnorm: 0.291320077196 xtb: 6.4.1 (79825abcba525fcdf90b791dcacef51065a7a4e7)
C         2.26026051448983    1.29487249530929    1.83276641389011
C         3.33174718099900    1.14554763799257    0.72063572060935
C         3.21627523684359    2.39830947172918   -0.20791221391132
C         3.61699554185213    2.17403003574357   -1.72397538135579
C         4.14739449334277    0.63017859870160   -1.61806265394909
O         2.86348950181243    0.04071590783104   -1.21402981109867
C         3.22208806356791   -0.26598622971959    0.16151138113168
C         4.44126750425818   -1.17343121988406   -0.12949977951777
C         4.93315192056869   -0.86986427349458   -1.57733085856303
C         4.35714951618633   -1.84913910924700   -2.58709929779421
N         4.01230503409745   -2.84652108505112   -3.27728161904438
C         6.33870622606944   -1.22815475326407   -1.83073050355759
C         7.21433273532322   -0.98147701917097   -2.87162381976717
N         7.09215968532427   -0.06451573711382   -3.84703982402950
N         8.35607617055622   -1.70225793790895   -2.83442024288755
C         8.28347406404985   -2.55103044125676   -1.83589895338406
S         6.85193009731623   -2.58782747970959   -0.89465321088352
H         2.15287076044252    2.30056865822368    2.25834919582158
H         2.30499558453973    0.59510396460157    2.67718524106766
H         1.34213448821520    1.06552913040168    1.27451624040329
H         4.32620540467853    1.29038749479173    1.14281016378698
H         3.76701135404924    3.26863636416283    0.16189494462668
H         2.18333416830302    2.78527536202346   -0.13901788979165
H         4.45602139048693    2.86017489414074   -1.89417837096673
H         2.84257096440378    2.29329261312493   -2.49876409490988
H         4.91101850745501    0.89690484744752   -0.86059927272658
H         2.43509824923495   -0.88654945954157    0.61052408417428
H         4.09697538481124   -2.21245502470318   -0.13432689552301
H         5.30892632140337   -1.05964230069895    0.53232186008633
H         6.22006444838786    0.43709241819891   -3.99235316591124
H         7.95490658262391    0.42832437791396   -4.05930957444554
H         8.99337524069761   -3.34563799747813   -1.64873455932916
