32
 energy: -49.228124348672 gnorm: 0.287950853982 xtb: 6.4.1 (79825abcba525fcdf90b791dcacef51065a7a4e7)
C         2.42553891402211    1.23766710503695    1.84341048954183
C         3.47655450250612    0.91694370044650    0.74809363924154
C         3.56829372748688    2.21951544177933   -0.11204473990101
C         4.23876018688789    2.19385039207990   -1.54701568123448
C         4.30646955872352    0.56020019647285   -1.59820489099318
O         2.87659339807096    0.30624150507047   -1.37441933461229
C         3.08114112656176   -0.30404083319506   -0.07039157586517
C         4.09710452865954   -1.44367511109108   -0.32257107483766
C         4.77858140149813   -1.06485000219865   -1.67253359930497
C         3.93368293798312   -1.64012180016825   -2.79752213715487
N         3.29604902686282   -2.14635677316281   -3.76042883065117
C         6.21350892701863   -1.35024558426177   -1.83896296401021
C         7.04207456810405   -1.28012184533015   -2.94331446996146
N         6.75794817935170   -0.69760720224096   -4.12107910358926
N         8.31740811293820   -1.64605394663678   -2.69012409087356
C         8.49196578818311   -2.09853619988896   -1.47048479060237
S         7.07333151765066   -2.04632292258045   -0.51060652892690
H         2.83192064235978    2.13531121767378    2.32628415295205
H         2.46622003327857    0.38857979347628    2.53775634279337
H         1.41703652700622    1.40425247473149    1.44045976637995
H         4.41432917898068    0.78926224651610    1.28886448449171
H         4.03808906638586    3.02948843539417    0.45432315998036
H         2.49460954312334    2.47576395717323   -0.16677365532807
H         5.21109982371334    2.67935186982686   -1.39677536815988
H         3.65093184556770    2.75243341580509   -2.29313724720598
H         4.82036811062221    0.50578126727399   -0.61791811798697
H         2.09520639067353   -0.69207497824840    0.21844453483362
H         3.57852335860619   -2.40744191243589   -0.34149067439910
H         4.84569920361755   -1.51417113852961    0.47644328458395
H         5.78098507328280   -0.77737703551754   -4.39025689335448
H         7.35484361201365   -0.97290356334843   -4.89581118272213
H         9.40895501089681   -2.57990086731243   -1.15773859678336
