32
 energy: -49.233665121514 gnorm: 0.278520051287 xtb: 6.4.1 (79825abcba525fcdf90b791dcacef51065a7a4e7)
C         2.50342829645764    1.24513014729608    1.86347294309474
C         3.56739739705499    0.94202492377184    0.77567091693304
C         3.65495772119334    2.27092329473447   -0.04366391388366
C         4.16165865687921    2.14043204082566   -1.53884007742641
C         4.29471267298475    0.51135801369738   -1.60541560710158
O         2.86398465101052    0.26859882515316   -1.37475105910686
C         3.04448519438877   -0.24214832008457   -0.02518460735728
C         4.00532559787939   -1.42351371224689   -0.30032810722022
C         4.69172837286222   -1.13407157742053   -1.66977780708431
C         4.02869031813745   -1.70065266000992   -2.91467004104089
N         3.68773828734397   -2.20898179609483   -4.01711883912997
C         6.12887932783297   -1.43923295323805   -1.76796152639579
C         6.90718848699813   -1.30999499528596   -2.90311042292278
N         6.58955923008246   -0.67211066925972   -4.04302089724927
N         8.20785971794851   -1.64798785277513   -2.76708653535853
C         8.47371657348290   -2.01686351726822   -1.53583454214443
S         7.12615575462865   -2.01174479231901   -0.47721783378458
H         2.67140806720208    2.24827979244172    2.27523940920010
H         2.54819396670540    0.56123702524754    2.72079820927567
H         1.49957935438752    1.18692026320106    1.42064572367149
H         4.46078875637029    0.73951107145106    1.36643061604329
H         4.27184852191819    2.97489443782089    0.52326366277950
H         2.62926589524334    2.68220352825861   -0.05982343002488
H         5.16824867528814    2.54154534701034   -1.71092394797481
H         3.45395423329720    2.47789514450526   -2.31313178854266
H         4.95845732970019    0.54723724858999   -0.71875275685404
H         2.08129088493915   -0.60135784293171    0.36119517960168
H         3.50220726502245   -2.39441278956071   -0.25177143918028
H         4.81358122149547   -1.48824475636130    0.43880676743893
H         5.59501856464252   -0.64292436294103   -4.25114067538656
H         7.12742719560504   -0.93111775284721   -4.86514948856100
H         9.43124544195717   -2.36528600670584   -1.17233544465544
