32
 energy: -49.229868520753 gnorm: 0.278974169812 xtb: 6.4.1 (79825abcba525fcdf90b791dcacef51065a7a4e7)
C         2.29870162908144    0.88373064177852    1.97271318154786
C         3.40450453705592    0.72731668425876    0.89570302674489
C         3.64738379668910    2.12702214047678    0.24241782270515
C         4.28170017517665    2.28515046853663   -1.20048332953650
C         4.38559584671468    0.66604558621896   -1.40958361548052
O         2.94650450042163    0.38007094676192   -1.32986266366232
C         3.02236200858011   -0.37076236919148   -0.08677470558819
C         4.00343123533695   -1.46909430528601   -0.56186685241867
C         4.76556226711255   -0.93474511636596   -1.81244481611857
C         4.07182782957132   -1.25090228069578   -3.12742293033370
N         3.46206512293968   -1.49775419744143   -4.20319880124186
C         6.19162965902918   -1.28162172117520   -1.93150274001798
C         6.92066384764923   -1.82687880000515   -2.97180773090546
N         6.48869900302878   -2.31972794337446   -4.14555673955462
N         8.21043322858469   -2.09364608760075   -2.67211208668413
C         8.51874083466908   -1.70109261694781   -1.45820155154056
S         7.24260361995840   -0.94364958216236   -0.60124790311155
H         2.63526567491058    1.67188610176791    2.65799680937823
H         2.11068723192444    0.01356607398884    2.61472921776667
H         1.38664593821665    1.15470583018730    1.42323715893331
H         4.31412613648672    0.43112623392361    1.41821309114244
H         4.19543911004365    2.69462643875868    1.00070354920410
H         2.68178396215985    2.65744652441638    0.15453599245169
H         5.29277225814413    2.71105413861353   -1.19226660382254
H         3.71180787835058    2.84544851013818   -1.95912911183207
H         4.99016595879637    0.64276929697242   -0.48116103646919
H         2.11798629041143   -0.86106678684604    0.29763424081209
H         3.37865374771468   -2.27656181832990   -0.95655678348395
H         4.77010451992304   -1.82435098155633    0.13798484153866
H         5.63218770105069   -1.97993007533618   -4.57474505810883
H         7.20546982031201   -2.57805986656115   -4.81770720574376
H         9.51034631231243   -1.96709071954052   -1.11709314382944
