32
 energy: -49.229673795711 gnorm: 0.283430862239 xtb: 6.4.1 (79825abcba525fcdf90b791dcacef51065a7a4e7)
C         2.32076968609925    1.36321084698674    1.78802036370819
C         3.39648566119693    1.03577377527210    0.71898510914721
C         3.43980457202999    2.30506323153256   -0.19314152844770
C         4.02121324633926    2.16790667297779   -1.66027396935912
C         4.29891941440596    0.55883057291994   -1.56142439251008
O         2.90729653177050    0.14430518554652   -1.33631267757687
C         3.10595874471421   -0.29331384004693    0.03620166254620
C         4.24099497400128   -1.33128344685860   -0.13366377865273
C         4.86042308043008   -1.03903343985457   -1.53409826235234
C         4.09266974347569   -1.59231126364094   -2.72356398850199
N         3.50261179316194   -1.94040217008400   -3.78219729646359
C         6.29025777265355   -1.34622841637101   -1.70547605674137
C         7.01343324169822   -1.22134311409205   -2.87699280725102
N         6.64308683471366   -0.52527594655098   -3.96580623156788
N         8.23413162406321   -1.79640916218283   -2.81631485855048
C         8.47907047620405   -2.37538281662817   -1.66413212244004
S         7.16590449502075   -2.30622571074233   -0.56530179132273
H         2.59060526413488    2.19921645824085    2.44556231286923
H         2.23443863523323    0.50931019205585    2.47221405028858
H         1.33549794199532    1.55870207502762    1.34280153537731
H         4.34811051692946    0.93252757722884    1.24043248010489
H         4.12691652867025    3.01332445049676    0.27991207668895
H         2.43866323926486    2.73647135497700   -0.37496381861813
H         4.91238102970591    2.77557634023076   -1.86098709793029
H         3.33898446578607    2.30790648760050   -2.51421687996465
H         4.86475846164925    0.69138003551654   -0.61788207322058
H         2.24797983474339   -0.84809705992664    0.43888251268782
H         3.87292672028543   -2.36212677081006   -0.12934747906678
H         5.02786032491336   -1.12735596294287    0.60325149634246
H         5.70998654561405   -0.79224057873788   -4.26801568531283
H         7.34633127791777   -0.40448768972389   -4.68909005199630
H         9.40026215909890   -2.89741350000640   -1.44213841363538
