32
 energy: -49.227695979887 gnorm: 0.282103698269 xtb: 6.4.1 (79825abcba525fcdf90b791dcacef51065a7a4e7)
C         2.52148194553219    1.21181427692740    1.92640147571375
C         3.51933771044232    0.78015445614477    0.81952752696013
C         3.88194458931302    2.07326815500344    0.01870266113218
C         4.56164988329414    2.05186814621813   -1.41198539823844
C         4.38135460727497    0.43321086066011   -1.56515219070805
O         2.93391154086841    0.25785292785023   -1.38272689326063
C         3.03365639860018   -0.35674059387741   -0.06853571005119
C         3.86025787426269   -1.58426152151032   -0.52071352516577
C         4.67462371137308   -1.21864108988258   -1.79877767400658
C         3.87747454897353   -1.54608290392853   -3.05086604749864
N         3.26363440304256   -1.65935184928404   -4.14649853728535
C         6.10776153829196   -1.55591013982564   -1.82184073913045
C         6.92960677536168   -1.47813412417188   -2.93069234975302
N         6.49285881526808   -1.31788600844615   -4.19194268136319
N         8.24905996982755   -1.50922094203917   -2.64335249812045
C         8.45157607802475   -1.48242472108598   -1.34681874171790
S         7.04581381015958   -1.55923669182072   -0.36980898515852
H         2.95719791237113    2.12142934808132    2.35863989910070
H         2.44124905869711    0.44087297527134    2.70353246344965
H         1.54752289256181    1.53804658583830    1.53630754099097
H         4.33438724973161    0.47695672706823    1.47673555114000
H         4.51955300152222    2.76944280259228    0.57217612998841
H         2.93507814216411    2.59447041239193   -0.21205353320724
H         5.64411612965965    2.23045439981293   -1.42208418010948
H         3.91444614575346    2.59300659464249   -2.12089375085014
H         4.90823111539656    0.31519126165271   -0.59742918543100
H         2.03129104886682   -0.69545377201952    0.22574508128999
H         3.19005919890673   -2.41915202720454   -0.74857840916138
H         4.54353648266813   -2.03633260701207    0.20904649958015
H         5.54431903296952   -1.59552088021794   -4.42957259094366
H         7.25675666386458   -1.51218518678668   -4.83302765611269
H         9.47194905917738   -1.47131242305484   -0.98750431773654
