32
 energy: -49.232123687577 gnorm: 0.280593806921 xtb: 6.4.1 (79825abcba525fcdf90b791dcacef51065a7a4e7)
C         2.27197943453543    0.74317444241496    1.91190103139169
C         3.40741239121965    0.64241181412387    0.85935404252745
C         3.68937583500634    2.07986346359658    0.31238363348345
C         4.48956663917182    2.27156996716610   -1.04122962869962
C         4.46286881029395    0.66659706010192   -1.35645502605461
O         3.01523214247856    0.42145098504968   -1.41452662192685
C         3.04896060803706   -0.38512662393516   -0.20495328668127
C         3.99645761015354   -1.50203967413207   -0.70424987959414
C         4.78797971553480   -0.90232833099127   -1.90598074268762
C         3.97224629674982   -1.12536414894995   -3.16900261408628
N         3.31300181896782   -1.37129451329552   -4.21540364213823
C         6.21417000188689   -1.26518073693786   -1.95583809632733
C         6.92508258923114   -2.01400079618153   -2.87502382889044
N         6.36712568149091   -2.49746057615346   -3.99847003160988
N         8.25079289830150   -2.05170110268806   -2.61898051671323
C         8.56593517352289   -1.48428858823122   -1.47816546743236
S         7.25895133303611   -0.69126191916702   -0.70388022317881
H         2.53417155999202    1.52771160397351    2.63289670949873
H         2.13492971207563   -0.18572599942556    2.48030381297677
H         1.27878695804895    1.01953264821457    1.53191171379702
H         4.27491079404281    0.32570247797198    1.43840388636085
H         4.13813839766355    2.64510261871762    1.13497306216901
H         2.68728425568340    2.48423660025470    0.08054076279140
H         5.51500239278692    2.63982893947503   -0.91240784690913
H         3.90394098168323    2.92701175584220   -1.70582965733927
H         4.98849932216222    0.35487791377678   -0.43203140461322
H         2.02754076203402   -0.77564321195858   -0.10364982007155
H         3.36125383337322   -2.31427491014658   -1.07156570409855
H         4.65977236719941   -1.78361885165096    0.12310392708525
H         5.38257228695366   -2.70339940470501   -3.85177091466751
H         6.88432688089318   -3.13903622716768   -4.59274743992219
H         9.60206744638888   -1.45578943186819   -1.16831216392065
