32
 energy: -49.235196778872 gnorm: 0.283417321931 xtb: 6.4.1 (79825abcba525fcdf90b791dcacef51065a7a4e7)
C         2.19769738818404    1.11218287737346    1.79499498506415
C         3.38506423138371    0.84103183097006    0.83382207561949
C         3.62694982233778    2.17002629982302    0.04628647597495
C         4.37938015975335    2.22028754653576   -1.34678493907970
C         4.38518796709518    0.58537914548676   -1.40208995009660
O         2.94137567873887    0.31518212702545   -1.36309670211573
C         2.99584173377102   -0.32802111125767   -0.05998667427885
C         4.04364172799357   -1.42780247090809   -0.35517906948158
C         4.80423987661481   -1.03572020070807   -1.65828303636550
C         3.99216570395449   -1.53275186248429   -2.84313970151413
N         3.45547472667467   -2.11994390104608   -3.82151000538912
C         6.23381579154630   -1.33138210153805   -1.85080082971632
C         6.95772068639007   -1.46076699005847   -3.02137840039911
N         6.46896055050213   -1.28881699523215   -4.26183289891800
N         8.27038100710170   -1.72672548240451   -2.84623195657573
C         8.57722205991485   -1.81925075668621   -1.57343258719513
S         7.26552110187332   -1.60675298347420   -0.49135080186656
H         2.56306576428517    1.86332891448417    2.50658729634225
H         2.04658878414919    0.13877924557852    2.27911474248741
H         1.26132637731812    1.48500421852116    1.35748999901025
H         4.25241171270762    0.64087314559830    1.46294992578399
H         4.15191096815085    2.83567718400255    0.73828445666924
H         2.64377754308795    2.62780204619458   -0.16648081330309
H         5.38279993400271    2.66220294381188   -1.30693843228491
H         3.82676337624743    2.68988595927753   -2.17645148026702
H         4.95837622724631    0.58519200892748   -0.45368577685171
H         2.00214588236789   -0.75998083172927    0.11902017875147
H         3.53719066082227   -2.38753767612011   -0.49851951154764
H         4.79121916153495   -1.53652590381050    0.44049348793865
H         5.48190163600248   -1.28608349184048   -4.50469919566088
H         7.00937917184570   -1.60866790532657   -5.06053505982454
H         9.54301642621436   -2.17281910485353   -1.23784053711823
