32
 energy: -49.233247571167 gnorm: 0.281857129608 xtb: 6.4.1 (79825abcba525fcdf90b791dcacef51065a7a4e7)
C         2.16528787192970    1.11950397497983    1.78719775725930
C         3.35635814891989    0.89984678493167    0.81749750158440
C         3.67959538703382    2.19589033342416    0.00464077020745
C         4.52494044929476    2.15493248386747   -1.33440357257495
C         4.48822264808445    0.52111105306359   -1.40718545584266
O         3.02903933373960    0.34865939149391   -1.39432815510989
C         3.01407742522794   -0.27901100910971   -0.08261983684876
C         4.03704263641798   -1.39566953858527   -0.40067379735231
C         4.78320321565687   -1.11333379779652   -1.74002025572516
C         3.86395411113063   -1.55966708483173   -2.86525708418989
N         3.08258450352344   -1.79131659437199   -3.82746297787774
C         6.21593557250069   -1.44635402485664   -1.80741378171498
C         6.96236163858097   -1.47711670710818   -2.97057000520238
N         6.51424544683938   -1.45013534981865   -4.23771030179430
N         8.27455392721448   -1.74815990612207   -2.79976512797217
C         8.61762989087750   -1.76471528218696   -1.53297572275798
S         7.27844383626000   -1.69252946099064   -0.46621163662287
H         2.31888267973709    2.00009709396158    2.42362719590844
H         2.03304063438931    0.26125220452813    2.45849124482267
H         1.23629008486332    1.27063091855556    1.22034610658094
H         4.19369943890207    0.69032458718168    1.48316785323852
H         4.06639106168768    2.95779347127897    0.68832872785197
H         2.72179652875261    2.65299037893979   -0.30380238373565
H         5.54915018503704    2.54632882687410   -1.29526882934235
H         3.94568538364902    2.63277762443546   -2.14086630718540
H         4.98074635163525    0.36847325678681   -0.42629942973012
H         2.00281225286464   -0.63736652426987    0.15187573725928
H         3.54521158023585   -2.37177533816647   -0.45941487314067
H         4.80412430486983   -1.53424742533329    0.37144634186997
H         5.54728570502838   -1.19348310998465   -4.41769724970992
H         7.15176485825185   -1.46561641584016   -5.02866628756908
H         9.64392164438185   -1.94440215014151   -1.24172115125538
