32
 energy: -49.230493133484 gnorm: 0.266098931306 xtb: 6.4.1 (79825abcba525fcdf90b791dcacef51065a7a4e7)
C         2.68419696809525    1.02195857097971    1.99127974893960
C         3.63270059062415    0.78088584124412    0.78735238901398
C         3.70201766819206    2.14794477931506    0.03151360956665
C         4.47168737205154    2.20282664559598   -1.35193212442205
C         4.36721686386377    0.58504666943808   -1.57077387727723
O         2.92736314054279    0.35702123349166   -1.38652816908084
C         3.09491900496560   -0.32311275952983   -0.11212027303787
C         3.91031714406030   -1.52692749679815   -0.64174124258044
C         4.67572073870843   -1.04525551498579   -1.91157093561354
C         3.97083614223196   -1.49997686436699   -3.17914990549815
N         3.18689931108510   -1.93489111463674   -4.06590397693140
C         6.10304658649658   -1.40371384528751   -1.86242908220783
C         6.94988900927360   -1.66485385627141   -2.92341655520154
N         6.53751088881835   -1.61831158018517   -4.20207161006425
N         8.25176805611275   -1.73801177772566   -2.57093082874698
C         8.42646236545524   -1.62285393509930   -1.27518734979479
S         6.99860478043727   -1.28948127011803   -0.38822563660603
H         3.22873005846267    1.63272798326562    2.72239018860883
H         2.29406526505244    0.10613358345702    2.45364564949438
H         1.83200242893891    1.59975936873869    1.60773347936696
H         4.60067676100312    0.53447695213864    1.22377167940497
H         4.18653922091447    2.82628277867429    0.74047971080122
H         2.64420025126178    2.41730367915661   -0.14147303483159
H         5.50655869453065    2.54980310514722   -1.24068066683155
H         3.85592369696965    2.82630307759518   -2.02003898808284
H         5.01055665838845    0.42745024410387   -0.68235248346802
H         2.17617832796224   -0.73873115987801    0.32289813345065
H         3.11528430323146   -2.24871716632116   -0.85404593987091
H         4.58339086362330   -2.03018206680462    0.06359146466038
H         5.53615454104777   -1.70803471890106   -4.35211174079314
H         7.23067578287248   -1.91924621413789   -4.88122020445599
H         9.38088754012623   -1.63890429968474   -0.76606425016629
