32
 energy: -49.230534180208 gnorm: 0.282730027578 xtb: 6.4.1 (79825abcba525fcdf90b791dcacef51065a7a4e7)
C         2.58582176035320    0.94398892256777    2.00178916934216
C         3.57137230271577    0.78547219844270    0.81402705190201
C         3.73947341039940    2.19293185344553    0.15391600591167
C         4.45856053416427    2.21911065529895   -1.25730826658732
C         4.37661255877294    0.60347804650762   -1.50027670109034
O         2.92193819012576    0.42472400144650   -1.39496619877907
C         3.01658864324312   -0.27671543190565   -0.12461321052992
C         3.86695488024783   -1.48590344940572   -0.58208891023817
C         4.66042170687804   -1.03060669384569   -1.84440157118404
C         3.93574330980017   -1.39778383833179   -3.12908534776851
N         3.37015074629189   -1.72388235064153   -4.20788326798351
C         6.08353828745402   -1.40342991697281   -1.90691880038964
C         6.91809979809369   -1.82393275136232   -2.92560179527799
N         6.58903091039608   -2.12499684145922   -4.19377162381017
N         8.20679668414551   -2.00231825124235   -2.56238524470948
C         8.43101815516432   -1.67168153537291   -1.31213139653971
S         7.04817155698751   -1.04402207982745   -0.51815747382503
H         2.81341147239615    1.75365003729030    2.70657980384606
H         2.62889566984878    0.05572114010501    2.64509731058493
H         1.54548846646898    1.03709194342167    1.66085589096767
H         4.49233750090478    0.42259930054369    1.27042968956264
H         4.32399988258178    2.83922182373483    0.81586357622946
H         2.73907286488592    2.58887119132122   -0.09884291570514
H         5.52175843439405    2.48862672845930   -1.23085980508022
H         3.99595119288955    2.83961236514604   -2.04167092043849
H         5.02034658874406    0.45179471909311   -0.61111194556912
H         2.01984965799079   -0.64596643957464    0.15148312618569
H         3.17484129231726   -2.32295151086502   -0.71795704238027
H         4.56015354121191   -1.88601573177047    0.16835988769065
H         5.66450660980517   -1.88719237119822   -4.54302892777866
H         7.30818507981773   -1.90382528651805   -4.87654717959851
H         9.36811050072204   -1.48127155088660   -0.80617356121717
