32
 energy: -49.233570089015 gnorm: 0.276639799522 xtb: 6.4.1 (79825abcba525fcdf90b791dcacef51065a7a4e7)
C         2.31591936840418    0.88968076482456    1.93533980348463
C         3.39666595361219    0.85411146347279    0.82271321938569
C         3.51197839242838    2.22252613969134    0.07498895623618
C         4.38160104293555    2.33271242488488   -1.24445827610498
C         4.44774113328344    0.71589917904656   -1.48437132385272
O         3.00796506712233    0.42385095337010   -1.45481556680125
C         2.99842803630622   -0.23803556898453   -0.15998431187224
C         4.07169828042712   -1.30996157570028   -0.46593861733330
C         4.82496325771463   -0.91036628407205   -1.77101849480015
C         4.00758451867103   -1.38686083139623   -2.96065507636539
N         3.20138534990636   -1.66282943423590   -3.89013040036465
C         6.23653217605765   -1.31898139264516   -1.86414872289588
C         6.95750364452626   -1.69369718742017   -2.98254883672707
N         6.53333283147973   -1.64516100059537   -4.25726606035960
N         8.21631707052527   -2.13273631554859   -2.76547576586669
C         8.52337353475556   -2.02967618701134   -1.49353805846534
S         7.28836787796639   -1.38755895105185   -0.49400707832365
H         2.60103318809992    1.65260782102019    2.67068356898121
H         2.15139933393314   -0.09666186901417    2.38786797577789
H         1.34170501602247    1.19534503554907    1.52954085735918
H         4.30691557181007    0.55941722333884    1.34497555042277
H         3.84835446441446    2.94415170053545    0.82575136671651
H         2.49347338707079    2.51711955399507   -0.23697026867263
H         5.38669593564950    2.69630335552044   -0.99684143556848
H         3.84589779029209    2.81531019400109   -2.07775052299252
H         4.98223452131140    0.52344421472410   -0.53290235281505
H         2.03348147380748   -0.71696637986879    0.05348116360518
H         3.70304276827361   -2.32348076364761   -0.65302897702699
H         4.75564617631658   -1.53175017601772    0.36280302834030
H         5.52890106891879   -1.56015022723737   -4.38828826631897
H         7.10140475971234   -2.16373783225827   -4.92108410112245
H         9.49039669576369   -2.25950616536034   -1.06641308114319
