32
 energy: -49.231997827358 gnorm: 0.277047757765 xtb: 6.4.1 (79825abcba525fcdf90b791dcacef51065a7a4e7)
C         2.33495718589553    1.23749047731269    1.88289692365144
C         3.37109067355892    1.06975311465480    0.74030870222853
C         3.35127876102971    2.33692711805606   -0.17556508199539
C         4.03352102711740    2.19470142291253   -1.59811311576249
C         4.39871490749935    0.60662284332087   -1.45438521865146
O         2.99671824915953    0.17663823957254   -1.36143659132787
C         3.07912539339692   -0.24359462261705    0.02830658884251
C         4.19746032764631   -1.28945169384529   -0.19541729580858
C         4.87038942696386   -1.01579348342952   -1.57476337656624
C         3.99744055665759   -1.45879287282868   -2.73756261933152
N         3.44653063826569   -1.71656927838591   -3.84213934456399
C         6.26415428319543   -1.44853760341236   -1.77051424325710
C         7.01931849360357   -1.35122969047054   -2.92432912406798
N         6.73478450810561   -0.77292815285397   -4.10406993434325
N         8.27101507725550   -1.84998152769692   -2.82951570308818
C         8.52765310964745   -2.34014340513948   -1.63930192078695
S         7.20697716826729   -2.23338937557976   -0.55254788621699
H         2.33585418396474    2.24617116525221    2.31491602216388
H         2.40162622244632    0.54435523756974    2.73133027890936
H         1.34816741289678    1.08747796644713    1.42361571803589
H         4.35522754359292    1.03923395327464    1.20796264021084
H         3.87800582468848    3.07520438967298    0.43684146489921
H         2.32302906110160    2.69121810116473   -0.37212737739466
H         4.95917005154610    2.77904589645105   -1.67189405265998
H         3.29908748223075    2.42044772426725   -2.38798685495208
H         4.88867829090297    0.74294954434223   -0.46982125234197
H         2.15785324058439   -0.73849182132280    0.36356541689028
H         3.65315850398085   -2.23675700045617   -0.26234271071822
H         4.95359373622518   -1.36437383802292    0.59606015897008
H         5.74996238802124   -0.76207095653077   -4.35563370106988
H         7.46897888667366   -0.98587736484743   -4.77331823368991
H         9.42751630060990   -2.88640265900879   -1.38982562145820
