32
 energy: -49.228302986173 gnorm: 0.286975988621 xtb: 6.4.1 (79825abcba525fcdf90b791dcacef51065a7a4e7)
C         2.36033349491645    1.16493305427285    1.90082430082245
C         3.44703036074205    0.90663074657692    0.82398350070578
C         3.67699101695728    2.20966251911542   -0.00918728026564
C         4.24822755328501    2.13561353705941   -1.48483328628026
C         4.31365660772028    0.50555262107594   -1.60582215625583
O         2.88505749701835    0.22796406484524   -1.40291823799688
C         3.06699046796171   -0.27879134623099   -0.05203998757851
C         4.04714099425831   -1.43406416984568   -0.36698769828388
C         4.77794739362398   -1.12025127535508   -1.70779397239026
C         4.02770020246129   -1.64383877709974   -2.92162077957189
N         3.26120369680173   -2.03559732240514   -3.84305905098348
C         6.23203897112529   -1.33488356348051   -1.79564051700009
C         6.98557200065519   -1.38247139810560   -2.95363618609854
N         6.57870415880174   -0.98439273269532   -4.17149191369670
N         8.29735086642595   -1.63271351864122   -2.75089890896498
C         8.55177761242745   -1.84822219373855   -1.48142908451319
S         7.18981050654748   -1.82264044496309   -0.44171428047066
H         2.52116407355685    2.09544133013026    2.45972134811747
H         2.42856289177302    0.26036929140650    2.51874786242516
H         1.36953630248253    1.27512427521521    1.43889805863246
H         4.37724585970832    0.78572477136269    1.37917524576312
H         4.31266473627667    2.87663894067997    0.58123450421056
H         2.69788610319671    2.68239892663036   -0.20750555928429
H         5.29565239528744    2.44793081273467   -1.58016077365387
H         3.59838562017577    2.51273654019411   -2.29089671654301
H         4.81009811211469    0.57946386291837   -0.61784530630851
H         2.09938354547627   -0.73145962477638    0.20269982271527
H         3.46800037871593   -2.36010235423256   -0.43896168524971
H         4.78749034103830   -1.57782756056519    0.42988277533671
H         5.57146795224322   -1.00201648941488   -4.30729118836230
H         7.14432642945605   -1.11751847459827   -5.00493718285650
H         9.53387362311126   -2.22053513310289   -1.22208016859816
