32
 energy: -49.227089550711 gnorm: 0.286071889820 xtb: 6.4.1 (79825abcba525fcdf90b791dcacef51065a7a4e7)
C         2.50453014863948    1.28633746118791    1.83242165422280
C         3.50755196184605    0.83162480194303    0.73953560751632
C         3.78615831870866    2.15463328803137   -0.04594150937749
C         4.46969540916881    2.09320998857185   -1.47364238745567
C         4.33903439961525    0.46316914255900   -1.51737344380802
O         2.88549876552261    0.30554989943117   -1.37070660805995
C         3.03567149750715   -0.35757206856766   -0.08521444263570
C         3.86993051146774   -1.62029267446832   -0.40784579343682
C         4.67660298363509   -1.18965276706702   -1.67044105348042
C         3.97723340330804   -1.68842052001044   -2.92443593996401
N         3.31811856951795   -2.00853106701889   -3.95066058487990
C         6.12287381546530   -1.45311721631177   -1.75442639873131
C         6.88333071682800   -1.35377592304226   -2.90458604693625
N         6.52521865308903   -1.20419067452788   -4.19166049806173
N         8.21569653626428   -1.47627906901805   -2.71943307438289
C         8.49226026525209   -1.62826634301392   -1.44540679238434
S         7.14660834157307   -1.72972784773686   -0.38921449862484
H         3.00935760777244    2.12057404038550    2.33568759109730
H         2.40525825785790    0.42666331203746    2.50757039996065
H         1.52634701516891    1.59800107887444    1.44098764706920
H         4.37093321264538    0.44342833956289    1.27993668738270
H         4.44381265844990    2.75909303431143    0.58624176623673
H         2.81348206978941    2.65835240483966   -0.19299337069928
H         5.52030219010732    2.40935104296705   -1.47073820121713
H         3.93108447743728    2.59032895972912   -2.29645800656968
H         4.85779857652153    0.43090108863611   -0.53867134612119
H         2.04518256634573   -0.72834887002640    0.21062392636568
H         3.14421915903250   -2.36967267877505   -0.73936272303324
H         4.44939214728438   -1.96544000807134    0.45753571024170
H         5.60231498968279   -0.93093081139533   -4.51854684991484
H         7.24342451845774   -1.13895623027969   -4.90734676765787
H         9.48308847276000   -1.69811624483018   -1.01672064396299
