32
 energy: -49.221027917436 gnorm: 0.290827607689 xtb: 6.4.1 (79825abcba525fcdf90b791dcacef51065a7a4e7)
C         2.64436100449082    1.53590094217162    1.74374820763616
C         3.50930810599230    1.09616548785506    0.53308082505543
C         3.38054989332962    2.21673496602344   -0.54982850756450
C         4.17322574692491    1.88514023455805   -1.88063108296585
C         4.26145872144603    0.26587024060710   -1.66569503784036
O         2.86519721193584   -0.07548861998009   -1.36065610165668
C         3.10234521424461   -0.29146514530169    0.05775415847140
C         4.09123455293117   -1.46868448128393   -0.11773065556298
C         4.80402290377619   -1.32988732785799   -1.49721828108328
C         4.02283674448461   -2.01877016183462   -2.60427694762632
N         3.29142449006611   -2.26026367410645   -3.60265420707494
C         6.26269660451910   -1.47025088593974   -1.64121644191066
C         6.99389964201362   -0.72674317901082   -2.54872346989669
N         6.58679230061445    0.29933400015275   -3.31593261294007
N         8.28801609283221   -1.11224575125044   -2.58245318601600
C         8.48320402241957   -2.10440622589694   -1.74564385342338
S         7.16551632509171   -2.69754039456554   -0.82449962436198
H         2.92571845136436    2.53166707322859    2.10894108188932
H         2.75597903946990    0.78990949817473    2.54109290042515
H         1.57262996430830    1.54679281629892    1.50194047531010
H         4.50115039260938    1.05944215888815    0.98369959778875
H         3.75339969993216    3.17643243282074   -0.17901817579773
H         2.28978381558927    2.24208172041722   -0.72601928087989
H         5.18475952002235    2.30881544671123   -1.84858500115948
H         3.67147574871062    2.20413758499695   -2.80839300312675
H         4.86745405384153    0.35049310670210   -0.74177733225077
H         2.18207716099336   -0.66220286098819    0.52863031313110
H         3.48511525760422   -2.37462141740540   -0.01758829716360
H         4.86566229377400   -1.41959518725526    0.65792360853924
H         5.59037961445216    0.26249897897193   -3.51362367560198
H         7.16033927869002    0.72540407679289   -4.03828307175111
H         9.40134844953969   -2.66717105872732   -1.84907457729335
