32
 energy: -49.223827380848 gnorm: 0.280492553021 xtb: 6.4.1 (79825abcba525fcdf90b791dcacef51065a7a4e7)
C         2.13354633449940    1.00152770354591    1.90911253553543
C         3.23962071937534    0.93143215341286    0.82333984370838
C         3.25416246174264    2.20533692964399   -0.08324849469135
C         4.28045479495538    2.24982326155242   -1.28909698522915
C         4.53737655686276    0.63488948656033   -1.33379553568895
O         3.11308175022785    0.27464474608183   -1.36079307320193
C         3.15288010734108   -0.32241782360646   -0.03538555805523
C         4.28178319407898   -1.35970840962132   -0.24550095596193
C         4.92135683071810   -0.99016237136669   -1.61834446376282
C         4.00711742471112   -1.35818148425907   -2.77554734311078
N         3.26444928157614   -1.44092648564922   -3.79124289100237
C         6.27299293654448   -1.50986962534123   -1.88508510168341
C         6.96061287087197   -1.60447568527908   -3.08060135797175
N         6.51408353737161   -1.34783412163946   -4.32234501147840
N         8.24365811916913   -2.00166409549554   -2.93734084548073
C         8.60160794773312   -2.02637891979415   -1.67480700779651
S         7.36656578253154   -1.63732806124544   -0.55234276479152
H         2.06931792443040    1.99285449111265    2.37518543508309
H         2.17501910188399    0.28985867823682    2.74369481844680
H         1.11465870706392    0.81383721920719    1.54327470344950
H         4.14523670886696    0.84034455012896    1.42310624189448
H         3.45788119526643    3.08828656414097    0.53029460002749
H         2.25346860226587    2.25391059448039   -0.54984112420603
H         5.22387968021382    2.71533876285776   -0.97769208493632
H         3.71860491332414    2.63481873428467   -2.15532890781221
H         5.04366970068245    0.64626764776470   -0.34812161497375
H         2.15269388165893   -0.77011487013296    0.03713318472530
H         3.76515964227133   -2.31838684132357   -0.35580328324451
H         4.99003717853342   -1.47015060011360    0.58514122640296
H         5.51369767132969   -1.36762926397368   -4.50154625529008
H         7.12249007574145   -1.74510281313899   -5.03248662335553
H         9.61981541161109   -2.20348640716528   -1.35499791261881
