32
 energy: -49.229642159656 gnorm: 0.285065771727 xtb: 6.4.1 (79825abcba525fcdf90b791dcacef51065a7a4e7)
C         2.33143822480995    1.02378148127748    1.87810417010203
C         3.48088665280445    0.74040728358613    0.87526637328684
C         3.86078906415126    2.10992247883126    0.22330813394820
C         4.55566126909841    2.22847221072172   -1.19529122940395
C         4.44286730843147    0.60813317655311   -1.38970518203960
O         2.97710543642437    0.51885655880593   -1.33781450640374
C         3.04969432848946   -0.30617661621900   -0.14248032123196
C         3.90776394703154   -1.49505235942702   -0.63728676264690
C         4.71489047181928   -0.99246434354065   -1.87270979264739
C         3.91685370897447   -1.43707202305086   -3.08755610347138
N         3.27876877700001   -1.94109509649929   -4.05132396613785
C         6.14949442942777   -1.32059329412929   -1.92179363051555
C         6.92867820835965   -1.76078341198484   -2.97542349082959
N         6.51707431826807   -2.06801557617972   -4.21774843298021
N         8.24585076557043   -1.79647218394847   -2.67832068834820
C         8.48676528954387   -1.47346459609892   -1.42917822976146
S         7.08862592110205   -1.20651207986132   -0.47494641444553
H         2.54732666382876    1.96271249397481    2.40334580195771
H         2.16711796047879    0.21438158163486    2.60100875076830
H         1.44462146725309    1.26929730618999    1.27770842256968
H         4.29584143970893    0.42868495736640    1.52859239503988
H         4.46352160331705    2.72632087578669    0.89732817213419
H         2.93047997612537    2.69670619548782    0.11529815877594
H         5.59570720018710    2.57672558327754   -1.16786396813544
H         3.89089661226304    2.73148359289646   -1.91593125808541
H         5.07906171231127    0.40138045684456   -0.50623176219283
H         2.06857314433915   -0.72857167209538    0.11256426113091
H         3.29540992512779   -2.35700250241802   -0.92047456694946
H         4.55075408345224   -1.83377419640137    0.18467359068741
H         5.58494921360824   -1.81781483452666   -4.53683962453605
H         7.10119705954885   -2.44802381702176   -4.95712410795754
H         9.50648370882162   -1.51750249963889   -1.07053304685336
