32
 energy: -49.226879756498 gnorm: 0.283485062644 xtb: 6.4.1 (79825abcba525fcdf90b791dcacef51065a7a4e7)
C         2.38217545094106    0.79807635487373    1.99515252667600
C         3.42606619366493    0.65200806985206    0.85665683323591
C         3.67048926859054    2.06869542761700    0.24167590023744
C         4.51789399537086    2.22227539528911   -1.08785183343498
C         4.47188405548227    0.61513872055570   -1.38953486906007
O         3.00903922628641    0.48121059103660   -1.35391059261998
C         2.95735202663462   -0.36618763802530   -0.17322546262977
C         3.92082892157792   -1.47837029994431   -0.65208286487174
C         4.73539831499228   -0.98291646316852   -1.88550095822179
C         3.95850989725830   -1.15032262188348   -3.18118988763702
N         3.29045429689351   -1.36094691051304   -4.22970276915585
C         6.15648213531043   -1.35706067529165   -1.97879208411694
C         6.97442073733826   -2.04896358818399   -2.85244956025200
N         6.55073744779379   -2.54018389134495   -4.02989413043502
N         8.29978634022230   -1.99823827426857   -2.59687125890513
C         8.51818107841066   -1.35947445255548   -1.47125360164361
S         7.12978664451690   -0.70973317249963   -0.70521648702396
H         2.82012171198501    1.29675635121364    2.86899425722911
H         2.15622808674740   -0.24031977705212    2.26974612041447
H         1.44779340341228    1.28026165457459    1.67636645258324
H         4.36794656325086    0.32943571030059    1.30046472701377
H         4.15642006802574    2.61522863881976    1.05574544051283
H         2.68320024722438    2.56531189451050    0.25109695588985
H         5.54297291742129    2.56951607855954   -0.90794819576265
H         4.04533917037394    2.73340140263762   -1.94207469337115
H         5.00937264842540    0.45746545796201   -0.43336519490535
H         1.94374723111024   -0.77742182661651   -0.07547139270251
H         3.25610988924202   -2.30099410657960   -0.93416354328691
H         4.54358473303067   -1.89597464687764    0.14889742569366
H         5.57234612327217   -2.45265421797558   -4.29136264549098
H         7.08320678672902   -3.17375884623458   -4.61925073693342
H         9.49687592830922   -1.26706731284527   -1.01958041288553
