32
 energy: -49.216006126823 gnorm: 0.278327823690 xtb: 6.4.1 (79825abcba525fcdf90b791dcacef51065a7a4e7)
C         2.01332263533246    1.18288160522867    1.65778051727252
C         3.31883160934443    0.74329918807080    0.94389685250395
C         3.69277250838579    2.09767021544361    0.25775213241150
C         4.37068172727500    2.12522322765815   -1.17368263300779
C         4.41260676603951    0.50546804566735   -1.39874550656858
O         2.97107552800892    0.26244756494973   -1.25025454863057
C         3.08206089480371   -0.44115899524458    0.01757539126331
C         4.14732043740122   -1.50883455828308   -0.32859423160041
C         4.78985052513529   -1.11916531627380   -1.69447525369983
C         3.91949864413001   -1.46731308423505   -2.89099979660075
N         3.47586970126272   -1.53017909901093   -4.06967760330620
C         6.21659022970748   -1.42292626445597   -1.89524741113333
C         6.91374072747188   -1.55389511047178   -3.08177972917181
N         6.41154182973319   -1.87667012384736   -4.28626849800704
N         8.25073672750280   -1.66597553166604   -2.92568042633800
C         8.61966259982450   -1.54306936765273   -1.67207826932449
S         7.33103117700701   -1.22156225622454   -0.58917572044108
H         2.10264086126490    2.16948111862378    2.12971450694671
H         1.72982356362569    0.39895156143946    2.37178495858111
H         1.16348861180220    1.24815205742047    0.96444154139295
H         3.99083455999534    0.46328500188498    1.75516813408469
H         4.43434040189657    2.57538630077598    0.90536382854792
H         2.73949009219162    2.65051083128868    0.17363215392909
H         5.36317248357671    2.57579256380909   -1.04847250028186
H         3.79237531892063    2.59479533583394   -1.98566679692808
H         4.98226513415944    0.38401168707437   -0.45600853761444
H         2.07582664780695   -0.80532550689921    0.26443463733270
H         3.81003666216506   -2.54958624703845   -0.29386092336857
H         5.02778097160868   -1.51894912953415    0.32598545671894
H         5.41375936341101   -2.04351758016230   -4.38561078418317
H         7.06060578598099   -2.36858330788524   -4.89373819708689
H         9.56611317108579   -1.90737079841653   -1.29537262528462
