32
 energy: -49.230747173835 gnorm: 0.280108485158 xtb: 6.4.1 (79825abcba525fcdf90b791dcacef51065a7a4e7)
C         2.49318104612985    1.06433963849488    2.02459612268390
C         3.49952721222673    0.76024049499766    0.88354074549475
C         3.77942480209294    2.10442842420795    0.13536736645246
C         4.43823106628421    2.17851195536839   -1.30331658311586
C         4.39359055808742    0.55039919103619   -1.45587444676887
O         2.93553995824221    0.41433005188009   -1.33465372640216
C         2.95035255148724   -0.29555406170229   -0.06555253536308
C         3.79023668756956   -1.48279648201013   -0.59431758818054
C         4.66844117614463   -1.08128324269795   -1.81818930757292
C         4.01764004662377   -1.46715615916678   -3.13650270722579
N         3.53134868901660   -1.68119840762735   -4.28007026998112
C         6.08980750559688   -1.46172942049378   -1.87426798815742
C         6.92935068029379   -1.68403037214288   -2.94980512658073
N         6.62532986250197   -1.84881198658036   -4.24888133475086
N         8.24830601651532   -1.80233349823953   -2.68363130109502
C         8.46440208496898   -1.58664998600267   -1.40710722959693
S         7.07040928724023   -1.26233073334204   -0.46465468501837
H         2.99934933517488    1.80038396885965    2.66186407509726
H         2.29893547100702    0.18479028092152    2.65179781536827
H         1.50111176601154    1.44939011393345    1.75122511240762
H         4.34182366159929    0.32454129603418    1.42099762999056
H         4.48645142361277    2.70067644996347    0.72029313709630
H         2.78108684885165    2.57433131823712    0.07236828338646
H         5.40763566287306    2.69156673822228   -1.33084327186331
H         3.75945777577842    2.62342506270481   -2.04868474592355
H         4.95119178608070    0.36340372275198   -0.51665729487013
H         1.98474084321015   -0.69587555959763    0.27119785350448
H         3.06263517843122   -2.26903278797527   -0.81917163144948
H         4.47996896213081   -1.91541707145698    0.14113902870710
H         5.68009734389906   -1.73086124106940   -4.60370512025749
H         7.34419788632766   -2.06713289032734   -4.93287459402045
H         9.41904417495177   -1.54072547536540   -0.90021396887816
