32
 energy: -49.227421347343 gnorm: 0.282211649954 xtb: 6.4.1 (79825abcba525fcdf90b791dcacef51065a7a4e7)
C         2.05798329575121    1.24154014953873    1.66608965107057
C         3.26808951304116    0.91695544503632    0.75093721450122
C         3.52167836993551    2.24114402032637   -0.04100000762011
C         4.48032689146576    2.17138281750200   -1.30014732012062
C         4.52864012373933    0.53681355822811   -1.34335644205482
O         3.08829613883619    0.26332753347493   -1.44202473197241
C         3.00815097671246   -0.31197962353859   -0.10884390077597
C         4.05375972694684   -1.44499179112838   -0.24123794163624
C         4.86155727219599   -1.11319975844670   -1.53263066145537
C         4.01618313736784   -1.42490575372854   -2.75679249897769
N         3.16065691781646   -1.63561823377182   -3.65885418693154
C         6.26844781366706   -1.47478248856199   -1.77363538365427
C         6.92406456165797   -1.52099250985160   -2.98980227263632
N         6.40574747339872   -1.35275794027470   -4.21871445657188
N         8.25718391698964   -1.72578015859019   -2.91671249565593
C         8.67004970810640   -1.92284161973018   -1.68649332408858
S         7.41241629434057   -1.82706868649709   -0.52640650087337
H         2.09470157786953    2.25825375849741    2.07721401320251
H         1.94882569640592    0.53199869271808    2.49636425551284
H         1.08284726243450    1.23443431074981    1.15987205126758
H         4.09891217303029    0.72723021621172    1.43056582542485
H         4.03908575280093    2.91162428057811    0.65202403916345
H         2.57604215063966    2.72300752904723   -0.34927907280639
H         5.42583543617533    2.67961426788006   -1.07333773175797
H         4.02543962963807    2.60087365460787   -2.20726900415677
H         4.86384832280329    0.49206551030273   -0.28806104807815
H         2.00933188409173   -0.73860524692347    0.05368331372692
H         3.53566605224621   -2.40917682392802   -0.24878703334434
H         4.83486783606638   -1.56285390669071    0.52018589974713
H         5.41732689348443   -1.41147229990732   -4.44861484918907
H         7.07054473713116   -1.62568568919011   -4.93693244422387
H         9.72309002532103   -1.83855883995203   -1.45326840841365
