32
 energy: -49.231443964118 gnorm: 0.278414990525 xtb: 6.4.1 (79825abcba525fcdf90b791dcacef51065a7a4e7)
C         2.50793589018595    0.69174055774377    2.04100547526176
C         3.52573163886024    0.66810078414990    0.87021546619596
C         3.71534402482078    2.11551950181155    0.30988212394394
C         4.42149207899062    2.23069303667047   -1.10341740211351
C         4.36585117180503    0.63494992139316   -1.45912214299609
O         2.90816571241143    0.45083323294658   -1.43975786764143
C         3.01119465723207   -0.29148418538076   -0.19351447736376
C         3.87549802461647   -1.45899001022374   -0.72685512846270
C         4.70683326607106   -0.95175699348836   -1.94419418179859
C         4.05182370835121   -1.20036097539236   -3.29310068988204
N         3.45603223134735   -1.22552846488970   -4.40415390535868
C         6.16142732913320   -1.17958306999175   -1.96463306843281
C         6.84550157124177   -2.04322377894503   -2.79961675301420
N         6.41462469878223   -2.65283458463511   -3.91760620773640
N         8.15304979871295   -2.16345290568350   -2.48283622212842
C         8.48850933862470   -1.51527684558906   -1.39193508853378
S         7.19577833162192   -0.63551726673061   -0.69087494618421
H         2.85526057896016    1.32699521245703    2.86556300536219
H         2.45277247978502   -0.30237547299483    2.50296942951629
H         1.48202355149104    0.93708850100420    1.73358834009187
H         4.47896345953482    0.35133668107558    1.29349622719104
H         4.23228754549296    2.63185242468493    1.12456378995300
H         2.70076277740480    2.52002170679765    0.14118374940650
H         5.48513237837588    2.49932281603603   -1.11876557118596
H         3.88325530809099    2.83383416693691   -1.85226752428781
H         4.93426782971176    0.38317586184591   -0.54177399789436
H         2.03091405649723   -0.68021730874752    0.11308069642972
H         3.21824406660812   -2.27227315353634   -1.05045764782020
H         4.52666715685945   -1.76715965590368    0.10067000658068
H         5.53476117388773   -2.37612064891051   -4.34486068434787
H         7.16035436365654   -3.15517307339992   -4.39070804241620
H         9.47237352844312   -1.42826701047202   -0.95053741963408
