32
 energy: -49.229911783327 gnorm: 0.281214197213 xtb: 6.4.1 (79825abcba525fcdf90b791dcacef51065a7a4e7)
C         2.71413720307704    1.02246915981764    2.09834385266774
C         3.55637863036052    0.93318535117480    0.79839229633615
C         3.50074142025736    2.24511301980013   -0.05054677551896
C         4.21525326494497    2.20710572310205   -1.46382446715683
C         4.35408904402215    0.57999821515599   -1.56007221735912
O         2.92023444236328    0.32884329310838   -1.35981483223872
C         3.03921062074999   -0.23749483532986   -0.02569396255199
C         3.96458843245915   -1.40351072428427   -0.44833478370402
C         4.67071016063909   -1.06708518961997   -1.79686285632028
C         3.92607137756429   -1.60150364096997   -3.00942223355866
N         3.57200800169598   -2.21968372027146   -4.04987053038955
C         6.09396087853193   -1.43161975755613   -1.89503773638826
C         6.95624695622134   -1.40884685145912   -2.97530377576553
N         6.64549966811815   -1.14252131054935   -4.25580659509045
N         8.25060952622218   -1.63614552158916   -2.66313688178314
C         8.42718819171117   -1.77086904406582   -1.36953719840587
S         6.98647794547544   -1.72044244036010   -0.44302392768688
H         3.05848039813156    1.88498634320359    2.68278367728349
H         2.87708230979798    0.09389309830347    2.66040770097372
H         1.66153050344969    1.27001886914101    1.90357395750743
H         4.59448295120867    0.78418261450477    1.09553638084138
H         4.09230648659357    3.01141959634786    0.45970954366648
H         2.44051186972900    2.54942825849734   -0.11955269599018
H         5.21655194854378    2.64039261294082   -1.34810228558459
H         3.65885213354750    2.67542964202502   -2.29168015089631
H         4.94950308098133    0.48830644359574   -0.62997005145373
H         2.01080398538906   -0.58044544100259    0.14988727670152
H         3.36192305430813   -2.31540317024190   -0.50645049360757
H         4.69867170123625   -1.60511660523631    0.34176928756300
H         5.82499760066717   -1.63620689514356   -4.59687509084886
H         7.45331666222505   -1.34831717066891   -4.83663514826707
H         9.39875770620950   -1.98031375860801   -0.94224695879786
