32
 energy: -49.231022600927 gnorm: 0.284145135570 xtb: 6.4.1 (79825abcba525fcdf90b791dcacef51065a7a4e7)
C         2.10247074548034    0.85481951303035    1.85780044893817
C         3.29973070113481    0.71135427265404    0.88147949953613
C         3.51295719636728    2.14107691695786    0.28534622392975
C         4.52684127101869    2.29474042295292   -0.92202786221864
C         4.51843783326734    0.69357578408718   -1.25701897833099
O         3.07181162256506    0.48186660672323   -1.40389532370072
C         2.98313645763599   -0.31901245761853   -0.19331606461890
C         3.99599786820058   -1.42239399480785   -0.58216483840468
C         4.84778705841430   -0.88596779977602   -1.77255138510594
C         3.96813660336246   -1.07029249428045   -2.99836938001500
N         3.47173531410953   -1.16743789303546   -4.15344023917929
C         6.23973679161666   -1.33531562759003   -1.94204722848467
C         6.86069985685072   -2.07581153956209   -2.93053156124798
N         6.33603178932865   -2.80205875546448   -3.93276358955526
N         8.20326763438057   -2.15838651275513   -2.80732256684827
C         8.60341994119858   -1.59656866804517   -1.69064471027021
S         7.38827554279060   -0.83925177507559   -0.74909762554609
H         2.27264489386715    1.65723294350710    2.58667045279856
H         1.91713431301281   -0.05437707325647    2.44408737031643
H         1.23395754160314    1.14466931357151    1.25045463022458
H         4.20475904840837    0.34709687476213    1.36768649714255
H         3.88068663986423    2.66532277350958    1.17274571016794
H         2.60020723378707    2.67842020414992   -0.03025792923580
H         5.51716782257609    2.55783555383767   -0.52990226514166
H         4.13085184650514    2.90275301152665   -1.75134542456587
H         4.96190446765617    0.39679010214368   -0.28579763562154
H         1.99512118396051   -0.77911451970627   -0.05842347020057
H         3.46185400685509   -2.33204846845648   -0.87431190372011
H         4.71430459271990   -1.65939963341279    0.21260016128418
H         5.42185813216149   -2.55081810985681   -4.29942620989295
H         6.98595964595396   -3.06826504733798   -4.66693661292056
H         9.65030292698278   -1.46403755573984   -1.45218532583226
