32
 energy: -49.229259373920 gnorm: 0.282312345975 xtb: 6.4.1 (79825abcba525fcdf90b791dcacef51065a7a4e7)
C         2.35524488627739    1.44084413940894    1.77249580096693
C         3.40187031721418    1.07121338199051    0.68844571922255
C         3.48845347174907    2.23302223133295   -0.35445926744673
C         4.21375070531746    2.04905922779881   -1.75067812829728
C         4.35083738400199    0.43719323028958   -1.50754626291790
O         2.93025854594817    0.10107408163729   -1.33991419381693
C         3.14393814469924   -0.28440360469062    0.04591432513403
C         4.23043295190834   -1.36908071267485   -0.14785621346884
C         4.78200664165602   -1.19849614960119   -1.59595336969433
C         3.97053152758046   -1.92996181709409   -2.65276762182268
N         3.35534019285123   -2.57028439029635   -3.54807023378522
C         6.21400274837581   -1.48551897881616   -1.78349381175209
C         7.02931669391921   -0.85771876019301   -2.70661930057907
N         6.58442320036047   -0.02006360248182   -3.65929147002333
N         8.32247555397847   -1.24423627020959   -2.65340560369143
C         8.49970245954883   -2.13634057301379   -1.70711223902459
S         7.11501211897655   -2.58967254313110   -0.80503769428224
H         2.67446530394459    2.23882120005631    2.45470469238839
H         2.12786570770956    0.53324800072366    2.34633230871586
H         1.45112569441007    1.89516975923133    1.34429753750180
H         4.35033892177695    1.00397205351831    1.22140248487177
H         3.94974600629813    3.03070552762256    0.23583478248476
H         2.48086670538848    2.56930140971602   -0.65965020103980
H         5.20218399193076    2.50695888506484   -1.88127578717824
H         3.61051533761131    2.34790234854206   -2.62306246340233
H         4.91881430245199    0.65243412584423   -0.58067579473283
H         2.24252188668159   -0.85041107007294    0.31637389430588
H         3.70948435384279   -2.32856347869065   -0.06952224937431
H         5.04825839910236   -1.28168253221411    0.57830541964861
H         5.61093596828855   -0.09490052764579   -3.94213216673110
H         7.29934162482625    0.31837704008657   -4.29696820281093
H         9.48653976375495   -2.51359785789804   -1.47425941836872
