32
 energy: -49.229048993243 gnorm: 0.285415744290 xtb: 6.4.1 (79825abcba525fcdf90b791dcacef51065a7a4e7)
C         2.54705496631415    1.01746482857737    1.98907453671311
C         3.52988547671065    0.72386021656958    0.82500547167570
C         3.89450368818896    2.11762154497334    0.21719779440334
C         4.60966771275589    2.15501651087015   -1.19576632424228
C         4.38874134894770    0.56478069240170   -1.50938939600030
O         2.92472997569043    0.47831063504379   -1.41820578651241
C         3.00175380881766   -0.28642474845961   -0.18369380919536
C         3.73952528522836   -1.54597307806649   -0.69728281286828
C         4.63821672255165   -1.06942500389664   -1.87862680151427
C         3.96458549813788   -1.55495748862054   -3.15176050148177
N         3.21120593201580   -2.03673320649224   -4.04077767088315
C         6.08151772932182   -1.35711615526834   -1.92640079149333
C         6.94840038747634   -1.69488294082758   -2.94887750819154
N         6.66814632311101   -1.70307262841265   -4.26362889757842
N         8.23965258309528   -1.83982544757959   -2.57989682700816
C         8.41925232509993   -1.48665243070355   -1.32860016234494
S         6.98188434574861   -1.12276802978529   -0.46942781034553
H         3.05124676850995    1.75456115720261    2.62669328261387
H         2.40348736920569    0.03873399953956    2.46467383123383
H         1.52632764037240    1.33821693677044    1.73921288396516
H         4.39901578688554    0.29039273266465    1.31985438524039
H         4.54315147523812    2.62051908886093    0.94099791613187
H         2.95726882118404    2.70224836195520    0.18172145281896
H         5.68031313621558    2.38027710050209   -1.11388684221039
H         4.10517157849329    2.81207812004809   -1.92240807833146
H         5.00790044624836    0.35872770759005   -0.61373350308879
H         1.98594292002526   -0.62245371952925    0.06384783681389
H         2.93851637411321   -2.24819767916612   -0.94906874660878
H         4.44818377443707   -1.94007817643554    0.04181930453118
H         5.71187556796070   -1.83958089271287   -4.58015464299321
H         7.33515640891271   -2.19319483190758   -4.85283158360140
H         9.41102334144707   -1.42127517704026   -0.90139128661862
