32
 energy: -49.225460276585 gnorm: 0.290833238862 xtb: 6.4.1 (79825abcba525fcdf90b791dcacef51065a7a4e7)
C         2.27022208347609    0.75029220599996    1.91969583384262
C         3.42480938561312    0.64734400270350    0.88841212053408
C         3.81731385525397    2.08277443842288    0.40838404205771
C         4.39487465892048    2.25270003150388   -1.05683757104564
C         4.35398512780516    0.67347585956240   -1.48156916344990
O         2.90384482539115    0.51131721978610   -1.30859949730496
C         2.98201451891626   -0.36954443113908   -0.15415376491755
C         3.90706995373063   -1.48166061397471   -0.70371035295861
C         4.74583980760617   -0.92231488306295   -1.89279212599209
C         4.05630736097904   -1.11445086108192   -3.23369444049583
N         3.47094278779959   -1.42322556812073   -4.30702879625346
C         6.20273722686121   -1.08929591872355   -2.02595968995966
C         6.87915237422286   -1.95847034435546   -2.86144096394306
N         6.47127598419864   -2.56279123568061   -3.99087168051740
N         8.18069744840312   -2.17217923597707   -2.57024301857976
C         8.54770226032127   -1.52237885796471   -1.49052197666393
S         7.27045695261895   -0.66636253151400   -0.73388721131200
H         2.45329420797967    1.44859692334322    2.74609353144363
H         2.16539998696321   -0.26856737784315    2.31423082081283
H         1.38045489320407    1.06144721102368    1.35516598975202
H         4.27950810780396    0.21968106223047    1.41257956143161
H         4.54753649870691    2.52385006839517    1.09377713102315
H         2.90602067259603    2.69963375568918    0.51078325796336
H         5.40894511030097    2.64827074069149   -0.91931251816365
H         3.74407926462146    2.80691853397545   -1.75222362059062
H         4.94258746660049    0.55964822443820   -0.54957889851165
H         1.99748181000518   -0.81022597022559    0.05214510073369
H         3.25015886987937   -2.30070726954512   -1.01316346113139
H         4.65271124879834   -1.80474380364281    0.03346257814576
H         5.48864116290223   -2.67259662774890   -4.22677080202697
H         7.04274198659976   -3.36900409921050   -4.22694256495121
H         9.54532141305563   -1.57239429750998   -1.07501525049766
