32
 energy: -49.212591313534 gnorm: 0.290096433286 xtb: 6.4.1 (79825abcba525fcdf90b791dcacef51065a7a4e7)
C         2.52483969607337    1.38860357932607    1.70818983843833
C         3.63864028248036    0.97905239646932    0.70872380467271
C         3.93730277799163    2.15030188712287   -0.28320492217962
C         4.23663494524853    1.91817779437781   -1.82133502984062
C         4.20049596552413    0.28865981686020   -1.68211216445191
O         2.79504630783630    0.05155635178857   -1.32488110120381
C         3.13335530727142   -0.29492518915181    0.04634836993687
C         4.13138724218374   -1.43386967262166   -0.27189702647208
C         4.63724574868705   -1.34677054611666   -1.74391567923807
C         3.73678222427945   -2.04183140155263   -2.75210518904876
N         3.25332850971639   -2.79407131054204   -3.64117648374103
C         6.08660024377821   -1.54848374823863   -1.90777446566684
C         6.94774480997662   -0.80521157369089   -2.69327247437190
N         6.60921640294554    0.09871957019890   -3.62894744599754
N         8.25990162590358   -0.86266874168708   -2.37794647781079
C         8.46470707796589   -1.75918107348211   -1.44143648863859
S         7.04199983330336   -2.45927214013555   -0.79151934665697
H         2.82306312653498    2.32416801317484    2.19794489149861
H         2.34043077052587    0.65402401538242    2.50261201322074
H         1.58091804569700    1.61861527873120    1.19505869434183
H         4.55573605600827    0.92388381935063    1.29528051398729
H         4.78549275878391    2.64573424434689    0.19914043592131
H         3.09627159817061    2.86370246493895   -0.21121566667069
H         5.16326241164678    2.27491647129951   -2.28805471318203
H         3.39373789724470    2.36092969855611   -2.37608710910613
H         4.83216592147939    0.46134617399091   -0.78813913151564
H         2.23036213424335   -0.66878243946689    0.54724574785705
H         3.71548735935220   -2.39358861218073    0.05074467692378
H         4.99308040263534   -1.29094224417359    0.39206402058308
H         5.65381204340646   -0.13539323267608   -3.88521006102861
H         7.23627013610857    0.15204276864924   -4.42659542085269
H         9.39159720434625   -2.15146628205629   -1.04472706422243
