32
 energy: -49.228767238575 gnorm: 0.276762232568 xtb: 6.4.1 (79825abcba525fcdf90b791dcacef51065a7a4e7)
C         2.34637190555346    0.93726871670506    1.88644663914118
C         3.47764659467252    0.68543492018808    0.85493629565219
C         3.70828112761307    2.10313464567228    0.23696990594811
C         4.63541998882816    2.22514556841944   -1.04164357658853
C         4.49494782656457    0.63847969658930   -1.41417121049836
O         3.03253107678534    0.49970715611847   -1.37952644473491
C         2.99105997812879   -0.32007894926418   -0.17910835453604
C         3.93443186972160   -1.45343894483050   -0.64824267597850
C         4.70876193473207   -0.96679361285471   -1.91074308380122
C         3.94149728795017   -1.33697934352531   -3.16957497250566
N         3.06445662794927   -1.58007577723439   -4.04235440942788
C         6.14302826980731   -1.29533014030599   -1.96651222433625
C         6.93889625550393   -1.87110607133993   -2.93919245242602
N         6.55987258883728   -2.36017453602164   -4.13264699173841
N         8.26591356350279   -1.94436855437776   -2.69805973137484
C         8.49363971155013   -1.53090827936868   -1.47334670473789
S         7.12252980445589   -1.05406825830794   -0.56268929683872
H         2.50169330048347    1.85649723029824    2.46521450334581
H         2.29080124844709    0.09010243130407    2.58210572721532
H         1.33843063380292    1.06402482954289    1.46789638437094
H         4.32232430353077    0.32096630538055    1.43960646009810
H         4.06203058397335    2.75709246695216    1.03992507215407
H         2.73508476231817    2.49332255168783   -0.11245607509429
H         5.59797889668296    2.61931631603085   -0.69259061099662
H         4.21593821748009    2.88895948496175   -1.81471580937311
H         5.04474335395621    0.39638524078352   -0.48297281771718
H         1.95430696938063   -0.58426891114906    0.06870399631435
H         3.36142817684797   -2.37732225763504   -0.77566802560698
H         4.73788468978990   -1.65540012790458    0.07110624792412
H         5.66231541847291   -2.07065271012800   -4.51191609589773
H         7.29754911792809   -2.54116388180549   -4.80744935627732
H         9.47172229076090   -1.49038054547521   -1.01279993121567
