32
 energy: -49.226198251731 gnorm: 0.284542587769 xtb: 6.4.1 (79825abcba525fcdf90b791dcacef51065a7a4e7)
C         2.53856325936481    1.24476035717251    1.86842159399518
C         3.49227953608203    0.89143388570858    0.69675528481895
C         3.53435548547818    2.22794491910168   -0.11374772543364
C         4.11292182647007    2.17039948737924   -1.58727243934521
C         4.28559834710524    0.54391477368802   -1.61462478834402
O         2.86137994577040    0.24798117599795   -1.40690844237266
C         3.00696461312806   -0.32537432567679   -0.07843515532868
C         4.05642620681732   -1.43417104976985   -0.33090813510054
C         4.75922997635781   -1.08119835891128   -1.67693753527612
C         4.06062316283549   -1.75185779948770   -2.84849832647336
N         3.48936966257784   -2.33352292528069   -3.81046260127696
C         6.20615742501111   -1.35077181193178   -1.72049762568749
C         6.97090424441214   -1.20811112088818   -2.86323155932807
N         6.60575250170348   -0.63167890651611   -4.02149351256763
N         8.27671783056171   -1.51233989856770   -2.69957627422990
C         8.48719694602314   -2.10428884388901   -1.54717635082242
S         7.16102773084423   -2.05454530909304   -0.46301008518857
H         2.94811394304394    2.08959411695357    2.43640239691478
H         2.48425033270306    0.33856876365276    2.48533915879484
H         1.57083625054592    1.62736420582009    1.51583718317039
H         4.45068341534014    0.66814505914143    1.16554213279597
H         4.11983627410163    2.95325887304685    0.45954837883467
H         2.52814938186938    2.68485380021716   -0.12923431464566
H         5.02494818062693    2.75346103285830   -1.76608901394297
H         3.29085575992697    2.31732359836210   -2.30621280058349
H         4.94213397889320    0.47307418434178   -0.72470463746071
H         2.05601361252928   -0.70690465059378    0.31677479414280
H         3.61538919922210   -2.43348523798134   -0.40153632377086
H         4.84881666266627   -1.48537725284287    0.42624635107847
H         5.62162194087294   -0.39937399682863   -4.12540830628901
H         7.20729716595315   -0.57908896590901   -4.83859837045936
H         9.48395842788481   -2.45775240806282   -1.31931363536267
