32
 energy: -49.224522629969 gnorm: 0.288356139877 xtb: 6.4.1 (79825abcba525fcdf90b791dcacef51065a7a4e7)
C         2.65720094351443    1.01685450273019    2.05371819392064
C         3.55756192365067    0.70995991397159    0.82800122607346
C         3.78973983656415    2.09161106288368    0.13368085792207
C         4.16602564332894    2.16181557487491   -1.40346125907137
C         4.28612785545614    0.53355104320341   -1.50518603101641
O         2.84547036974730    0.31147749853984   -1.31995596246580
C         3.04202929656754   -0.40562871511154   -0.07019759922334
C         3.99276516630786   -1.53969937373245   -0.52244471661065
C         4.66645878292117   -1.08040320267328   -1.85116662621539
C         3.96024646720156   -1.42058540062082   -3.15344557202932
N         3.27173632613648   -1.53517986961407   -4.20361794897638
C         6.12779276454998   -1.23134034582840   -1.95060158915567
C         7.00192894202257   -1.64150071617277   -2.93988667788466
N         6.68203313133587   -1.80262795376791   -4.23560474430569
N         8.28922776037185   -1.81488693983239   -2.56936505637990
C         8.44368023483125   -1.66667494936369   -1.27441014275421
S         7.02221826575577   -1.14188307289265   -0.47400084073048
H         2.81603706192732    1.91838499046420    2.65877348266197
H         2.65953918824619    0.10613625745733    2.66634139768649
H         1.63344188842521    1.04444323231915    1.65578189968848
H         4.52395793713725    0.46291528146965    1.26755178942312
H         4.66363987968191    2.55756460778128    0.59921551554462
H         2.86930860300669    2.68664835461441    0.27578380767132
H         5.06803795684844    2.71871076505617   -1.68625047029211
H         3.39836349035589    2.49397306017019   -2.12083199662496
H         4.87723445463704    0.44019212842499   -0.57250581081861
H         2.04364866444300   -0.79585704507060    0.16859532265275
H         3.41165318953446   -2.42224511024633   -0.80801908768076
H         4.75050395952144   -1.83796763034625    0.21284813828109
H         5.74216668856794   -1.83503119535151   -4.62145174342564
H         7.43976119657865   -2.16665940974010   -4.80622835996032
H         9.38164143314975   -1.84848293771425   -0.76690053460091
