32
 energy: -49.230891503592 gnorm: 0.278395205456 xtb: 6.4.1 (79825abcba525fcdf90b791dcacef51065a7a4e7)
C         2.02654922972504    1.17080056118212    1.65912551498072
C         3.31714835979249    0.89868653844567    0.84210402454508
C         3.55288324978982    2.22842874221298    0.05396571885910
C         4.34862498128333    2.17239590395299   -1.31460323613367
C         4.46542516843160    0.54421338066412   -1.42136112379475
O         3.02010607949438    0.31278499263810   -1.29246402392024
C         3.10657165163533   -0.35082479070540   -0.00137205895368
C         4.21239162652185   -1.40060358355568   -0.26532108556259
C         4.84541834373945   -1.08977620482660   -1.65563814554770
C         3.88244863076308   -1.45155741006417   -2.77465286942782
N         3.25127860832920   -1.79052975676180   -3.81232444669048
C         6.24368081592684   -1.50651053981150   -1.85403401598953
C         6.96214200327310   -1.52758203651150   -3.03488122239531
N         6.49217491255062   -1.18464762716479   -4.24678368148059
N         8.26597920715453   -1.85603907844062   -2.90599430074141
C         8.61470998603318   -1.99077960000288   -1.64783595229446
S         7.32848800357696   -1.77769533649631   -0.53570115580510
H         2.18088728850231    2.15610963081985    2.11675400811092
H         1.88610698863691    0.44656626531337    2.47182536199794
H         1.19936639191223    1.23170657809896    0.93853128425275
H         4.11469498437701    0.71698939319140    1.56256397019667
H         4.13706667902701    2.89740838413274    0.69328760035960
H         2.57621125584882    2.71418967435194   -0.12381058809965
H         5.28883745615729    2.73763768406425   -1.32978333564408
H         3.69234082944928    2.50577380642477   -2.13460618715994
H         5.04859856666085    0.58298310167305   -0.47986179327748
H         2.13480517371095   -0.79597413291000    0.25077090606869
H         3.83748278192331   -2.42865128968311   -0.23901324086072
H         4.95447984000255   -1.27931167329171    0.53366638610735
H         5.50988622466192   -0.92646683175016   -4.28835804831953
H         7.08413460146821   -1.47293885214386   -5.02057560021557
H         9.63926451767019   -2.10469080026516   -1.31965367189798
