32
 energy: -49.230225091750 gnorm: 0.283344092163 xtb: 6.4.1 (79825abcba525fcdf90b791dcacef51065a7a4e7)
C         2.76788867416912    1.22705385265809    1.98344847086469
C         3.61715547620026    1.01726947712102    0.70206145502566
C         3.53705861739549    2.25547267517912   -0.24945553832136
C         4.24777376021540    2.07099425245263   -1.65308556919635
C         4.28654100949812    0.43561520917178   -1.66018128705212
O         2.86238694897411    0.25583368193148   -1.34619937124763
C         3.09233937442311   -0.23004252508132    0.00502928961610
C         4.00705161968527   -1.43719692438377   -0.31218069786904
C         4.66986696333089   -1.21369362737947   -1.70539284519154
C         3.92316331090322   -1.74587014651063   -2.91766841548705
N         3.41431567949677   -2.15303181666531   -3.99717460216169
C         6.10723078657292   -1.49071977899280   -1.86479210614108
C         7.01068334322944   -1.32320224275943   -2.89762411587740
N         6.65148974063042   -0.70599735788543   -4.03657922184503
N         8.30910166331733   -1.52202429146178   -2.58287504661467
C         8.45250443931621   -1.84929533262763   -1.31991823688069
S         6.97558954255340   -2.02489567011282   -0.46874104872640
H         3.08302626320199    2.10349192729528    2.56364036783409
H         2.89804826953128    0.39121956052134    2.68284813857674
H         1.68784405765394    1.26931389762070    1.78618025314495
H         4.61483553105068    0.95998468202648    1.13738887556721
H         3.96546909396974    3.10418368446415    0.29247673971855
H         2.46008118670395    2.44438469838839   -0.41035346739345
H         5.23430719729400    2.52318420677216   -1.81434383603931
H         3.62258497037307    2.45182629365587   -2.47671199229746
H         4.89811864990568    0.43502215741700   -0.73606671857035
H         2.10866827762474   -0.60012773339967    0.32360770864935
H         3.34520700614293   -2.30855676905110   -0.34089577591025
H         4.80964936296066   -1.48645351665237    0.43427644866332
H         5.65333086067544   -0.73874748282853   -4.22600756904874
H         7.25165199892442   -0.90868895427150   -4.83093645819760
H         9.40715560661653   -2.08416138381262   -0.86839808714755
