32
 energy: -49.224817402093 gnorm: 0.280270161552 xtb: 6.4.1 (79825abcba525fcdf90b791dcacef51065a7a4e7)
C         2.41360769478746    0.75349758318834    2.05157080936543
C         3.40465113960098    0.61155202988655    0.86628577168146
C         3.53967291757276    2.06276621393269    0.29998746778077
C         4.39413601436674    2.27625660963547   -1.01669025938957
C         4.36090277602310    0.68026709949710   -1.37408483026314
O         2.91305984228493    0.43610473508872   -1.43114971991776
C         3.02148298961235   -0.37421280270816   -0.22848492454162
C         3.97112141033808   -1.49431025210153   -0.71645110176075
C         4.79535775677934   -0.87492604355047   -1.88577383170899
C         4.07596888205659   -1.09758534307011   -3.20611194219809
N         3.50651580950489   -1.25560222159379   -4.32002127691798
C         6.22264206226613   -1.22623216988063   -1.97300837854013
C         6.89734416999360   -2.05764459562146   -2.84740018669249
N         6.43456951687476   -2.52221126610693   -4.02094100985022
N         8.17593626970786   -2.32068683182749   -2.50027148390985
C         8.50412921442739   -1.67360623269820   -1.40651342917927
S         7.33360009481728   -0.56510786702632   -0.82538637711963
H         2.64669994505623    1.69804896720113    2.55908309718160
H         2.50106801445198   -0.12184242331634    2.70796318057033
H         1.36234900975187    0.79384696690556    1.73467312975904
H         4.34712703342090    0.48055996262148    1.39801622206283
H         3.98427112033506    2.66764633274334    1.09622172280495
H         2.50409231434782    2.38571173955596    0.08848029282854
H         5.38288956423086    2.69691834423728   -0.79501860072648
H         3.89723444926982    2.99941971016486   -1.68330747142477
H         4.79803932222568    0.51116914002795   -0.36992706786911
H         2.06545425845766   -0.82934400615525    0.06294045553830
H         3.37181129168877   -2.33000757527203   -1.09137535585938
H         4.59843961778924   -1.93129161086623    0.07050936589278
H         5.45636258589603   -2.32973193270510   -4.21928344397198
H         6.81686925107571   -3.36715423521335   -4.43591127964773
H         9.49277322415406   -1.78509700458579   -0.98160851175907
