32
 energy: -49.230178508460 gnorm: 0.283374062463 xtb: 6.4.1 (79825abcba525fcdf90b791dcacef51065a7a4e7)
C         2.13894184467940    1.28914022053990    1.64452026587787
C         3.38625408180680    0.95490516972772    0.78445318327054
C         3.56293449180352    2.22106602768709   -0.11586230230913
C         4.25588273032181    2.17865620661644   -1.53971261714879
C         4.47923700200971    0.56065655933924   -1.44911532788816
O         3.04011014898870    0.27483325501601   -1.36949264081707
C         3.08408971520137   -0.29388788013499   -0.03181002889222
C         4.15161171001390   -1.40123734250777   -0.20126910951543
C         4.85196111324324   -1.08808218635238   -1.55838464149739
C         4.07112360681984   -1.57056847238821   -2.76994976478199
N         3.12520702763456   -1.71852285942685   -3.59055410661314
C         6.24944913219130   -1.51283638652489   -1.74487185409320
C         6.94972820741002   -1.34260961239709   -2.92455938681206
N         6.53376458093456   -0.78192665192164   -4.07338031500386
N         8.24755587765116   -1.71495149641715   -2.88593062057343
C         8.55490129449892   -2.13675559160370   -1.68162555298665
S         7.29727036629874   -2.13268738481708   -0.51759651687067
H         2.33049138008418    2.18105956596608    2.25432900103402
H         1.94209358045861    0.45703712958294    2.33268854970643
H         1.22385939171124    1.44517956767027    1.05675087079403
H         4.22720895078699    0.85766321780457    1.47110878532734
H         4.14300686021526    2.93391781132612    0.47818726769068
H         2.51293820363453    2.54132838680712   -0.24390956106222
H         5.23951650065728    2.66419879786048   -1.56071752648901
H         3.59042840915025    2.46653279986942   -2.36950305072093
H         5.10659839198016    0.61810108746936   -0.53745031083545
H         2.09744365733810   -0.71290656342816    0.20697229773443
H         3.69615374569056   -2.39274001405044   -0.11402621998129
H         4.93491700213909   -1.30495591986758    0.56093186966064
H         5.58203000862592   -0.85804561526313   -4.42221268415371
H         7.19552365023566   -0.99424719752585   -4.81451253022321
H         9.51774102447749   -2.56479161221949   -1.43643954267225
