32
 energy: -49.231170398146 gnorm: 0.279070025419 xtb: 6.4.1 (79825abcba525fcdf90b791dcacef51065a7a4e7)
C         2.62193182800195    1.18603422367118    2.00894843741760
C         3.56563867353601    0.91212325764301    0.80827927311099
C         3.67063032704424    2.20322476644984   -0.06749518592848
C         4.38741634428678    2.16759363082436   -1.47968277894610
C         4.27656766397671    0.53643012046143   -1.53478274604768
O         2.82738035339908    0.39267182133221   -1.33905204879481
C         3.04344431869494   -0.23503512157415   -0.04519229670882
C         3.88300936135853   -1.44615205031705   -0.51728205121686
C         4.65509951624549   -1.08912903865086   -1.82370057631128
C         4.03944261410902   -1.79174749424654   -3.02273522743924
N         3.49113625514945   -2.41984707633925   -3.96872210722113
C         6.10756754294683   -1.32929014683478   -1.79496687093499
C         6.92731122138553   -1.33879603754957   -2.90805291633524
N         6.59987124703302   -0.94274324839178   -4.15027105175956
N         8.22060035880987   -1.66545165425919   -2.69548143933692
C         8.45586224953169   -1.87109926792984   -1.42069067401520
S         7.07172431530272   -1.73704049514876   -0.41928859631984
H         3.09119947848828    1.87750429999382    2.72009894329810
H         2.34825747549676    0.24478201615970    2.50277736529999
H         1.78333886618764    1.71856879171552    1.53951706478353
H         4.55356246596607    0.73215585996848    1.23227847078647
H         4.09397950552600    2.96694608550575    0.59208174548498
H         2.62823774404557    2.54973708738046   -0.18916357784786
H         5.43842478506819    2.46761763891509   -1.57505078018730
H         3.79870225582545    2.72566402215056   -2.22548952558862
H         4.92456048754141    0.45566944735385   -0.63946252062618
H         2.05800354598871   -0.58937128501799    0.28558930080083
H         3.19200703390446   -2.26036914706797   -0.75748432860026
H         4.59305818407244   -1.81262794344358    0.23459141542126
H         5.66388181290934   -1.27238447698798   -4.37058278540826
H         7.33116389813066   -1.15650346227770   -4.82243150086522
H         9.38887624108590   -2.24462542805485   -1.02024784654711
