32
 energy: -49.226615732909 gnorm: 0.281981370972 xtb: 6.4.1 (79825abcba525fcdf90b791dcacef51065a7a4e7)
C         2.62980545660925    1.39694841292217    1.93742182945007
C         3.55290187695521    0.99770473663071    0.75601853158968
C         3.65719183978507    2.24243932147208   -0.18456993765071
C         4.16277278099292    2.07145813389084   -1.67603864744732
C         4.23599987413041    0.43860361772258   -1.60939202458467
O         2.82217178493098    0.24163187399931   -1.26094821233638
C         3.06705304151641   -0.27469343492192    0.07629299444884
C         3.95171946904722   -1.45920589567158   -0.38069490731475
C         4.65280322467411   -1.19730465487804   -1.74825013120125
C         4.03438801694848   -1.77521545486668   -3.01077615937642
N         3.72627724614709   -2.32667748795148   -4.10210448600315
C         6.09587662134934   -1.48419925971410   -1.80653405634394
C         6.97960984082103   -1.05265214873786   -2.77803459438646
N         6.57474755166086   -0.44347242266114   -3.90593850550176
N         8.27068201734836   -1.37285119223553   -2.54331662756276
C         8.48200987114047   -1.93201168336563   -1.37480874361613
S         7.00717010837501   -2.29345525999529   -0.58056576419099
H         2.81519323319808    2.44646571708010    2.19861684523955
H         2.95814598380014    0.82621481652697    2.81558812297244
H         1.58027680057505    1.16902211992096    1.70561104569780
H         4.55423452815138    0.85084711356953    1.16089229191654
H         4.30009044839802    3.03870134843265    0.20296673283457
H         2.62560049211951    2.63095323561975   -0.26414702222002
H         5.21342430993022    2.38379989464152   -1.72401988643132
H         3.47364305172701    2.45051015188761   -2.44783805798565
H         4.91036138706148    0.54902590606203   -0.73700520690583
H         2.16225992027524   -0.61114853951739    0.59994503995647
H         3.30569810862771   -2.34244620858951   -0.40665207380297
H         4.67277069979182   -1.71922328718178    0.40432973878842
H         5.64085888867682   -0.73331420488870   -4.18364433180628
H         7.24822086859983   -0.45474072409064   -4.66658872418408
H         9.44972853646768   -2.31988873818941   -1.08590853082178
