32
 energy: -49.228510115078 gnorm: 0.287666615720 xtb: 6.4.1 (79825abcba525fcdf90b791dcacef51065a7a4e7)
C         2.28880363486360    1.05761214860493    1.87591441719120
C         3.40504996152845    0.76697306365952    0.83825390929460
C         3.66979224151125    2.12332993091214    0.10671113705049
C         4.40543024319761    2.15697917620128   -1.29579733918604
C         4.42991935422450    0.53491503056416   -1.50633484503709
O         2.97382087195693    0.36128995229251   -1.41278074307932
C         2.96713270520958   -0.32314333986284   -0.12970668598079
C         3.92955194957545   -1.50047104214693   -0.41639656613344
C         4.76162201702449   -1.11728781948663   -1.67780371542476
C         4.13977582178802   -1.51128456539808   -3.00763984045258
N         3.33287241693468   -1.70427843289171   -3.95721890874939
C         6.19521484400518   -1.42653092421908   -1.80951041441826
C         6.90839120353372   -1.58881748640611   -2.98257185175211
N         6.49795096098617   -1.48512125083595   -4.25848976587235
N         8.21644100251023   -1.85562462550647   -2.77688523655980
C         8.56020404406628   -1.69798381477582   -1.52002130710079
S         7.26574633798850   -1.34263513852930   -0.45478787641019
H         2.58914280018150    1.81555376024965    2.61035225327079
H         2.11148268203193    0.13396544455172    2.44173631952896
H         1.36115373205025    1.42904555146823    1.41907755379168
H         4.26340063720025    0.37825477301228    1.38624041564215
H         4.31065524294992    2.77331334012974    0.71032747994160
H         2.72544578709488    2.68272108881689   -0.02270133835354
H         5.39730623108333    2.62577020011860   -1.28374729044794
H         3.80803605977222    2.57250557358919   -2.12327093547625
H         4.89946669969793    0.44705058744350   -0.50642463627379
H         1.92785481251993   -0.62254107110277    0.06088858088169
H         3.34527806718463   -2.42073725125324   -0.51571904664796
H         4.74208111529145   -1.68424870810900    0.29761306056886
H         5.52072006234059   -1.45758097195606   -4.53694642727438
H         7.02227308512697   -2.08950735674593   -4.88465729957829
H         9.56657146403251   -1.86668980609742   -1.16064092028814
