32
 energy: -49.227698315990 gnorm: 0.281251869329 xtb: 6.4.1 (79825abcba525fcdf90b791dcacef51065a7a4e7)
C         2.28783374570348    1.46932592124259    1.71812982533626
C         3.44223977496846    1.06507871009200    0.76358952713851
C         3.49871902405387    2.18439071029227   -0.32677646480191
C         4.36500837203114    2.03540029119427   -1.64460429602957
C         4.33128995958835    0.41059359789599   -1.45783135800385
O         2.90482742335372    0.12563397005026   -1.25016945633660
C         3.15351132331119   -0.28501341428478    0.12252779470129
C         4.15214691249646   -1.44212954845293   -0.11903300209851
C         4.75401677210929   -1.22757149039400   -1.54101594491249
C         3.97561203319352   -1.86236111764814   -2.68185705121733
N         3.56784199581252   -2.37389103607027   -3.75986488014075
C         6.18634044424517   -1.48199899078765   -1.76879191232952
C         6.93598370821373   -1.02368590432373   -2.83603821918051
N         6.56818041727930   -0.09742174153609   -3.73822227689014
N         8.23210457127921   -1.40381077239654   -2.84398202594725
C         8.47140853864286   -2.11146556235605   -1.76477449093161
S         7.15796087013963   -2.45157653030585   -0.71797200246795
H         2.46134803191769    2.45310326247342    2.17217054082073
H         2.20014795902825    0.66514469607071    2.45996817655134
H         1.35470791662591    1.65525827267976    1.16867338247704
H         4.35931842349530    1.11119281254876    1.35095418757464
H         3.73133899099162    3.13364850904534    0.16549794145540
H         2.44689481994016    2.26542054844305   -0.65625528492589
H         5.42144914609037    2.32736157187628   -1.59541374296766
H         3.97418689049633    2.51053477719706   -2.55880358190709
H         4.90110709575177    0.60841430306618   -0.52821278541953
H         2.25669963738667   -0.70736427743401    0.59519326363829
H         3.62044638603633   -2.39780163577275   -0.16503559882471
H         4.88679843084911   -1.45558625386629    0.69576370646907
H         5.60972780294461   -0.14416671866736   -4.07357329909087
H         7.25435766115870    0.12456374492051   -4.45387950540503
H         9.44939435188974   -2.46688663797571   -1.46878299178149
