32
 energy: -49.229596790401 gnorm: 0.282679883332 xtb: 6.4.1 (79825abcba525fcdf90b791dcacef51065a7a4e7)
C         2.10845039471379    0.75750657496826    1.89855873166564
C         3.27685419159776    0.75687425088943    0.87775099371249
C         3.34433340712646    2.19147990339105    0.25944651109626
C         4.34640654518771    2.30894089973349   -0.96177333268818
C         4.55932519755266    0.71638067440721   -1.26907682321886
O         3.10965711986548    0.49928985860761   -1.37132592196961
C         3.06101073043547   -0.32314077331791   -0.17298787040903
C         4.06528039315198   -1.43414802076209   -0.56240763821477
C         4.88879920906848   -0.87087626841227   -1.76026392796162
C         4.12174652906891   -1.02579501593284   -3.06334512927075
N         3.50768058607762   -1.03429494149384   -4.16465839709022
C         6.29861058206931   -1.26370356883575   -1.92239030149113
C         6.85807770291772   -2.03290235517648   -2.92556544323024
N         6.19302130435098   -2.67593301263614   -3.90095879885185
N         8.17587441576752   -2.30354326492869   -2.80451736315929
C         8.61460644336704   -1.74441632236339   -1.70105831742329
S         7.49955146696777   -0.86038353716468   -0.74620014291842
H         2.40279801464426    1.37649232247773    2.75546838817003
H         1.90206680256578   -0.27616229293546    2.20458955369097
H         1.18249429158817    1.09371489823955    1.41197236366476
H         4.19494378807664    0.46190796229226    1.38594720130035
H         3.65502684267671    2.88144786116675    1.04998450162436
H         2.34614112030988    2.57162442831540   -0.02438192386041
H         5.31273783744516    2.74795917419218   -0.68393345686004
H         3.93557951613162    2.74253660490833   -1.88777034632730
H         5.03649098139518    0.51309807761737   -0.28978917853788
H         2.05946116838841   -0.76274323515980   -0.07443712565133
H         3.58291619314109   -2.36743279379297   -0.86971064854109
H         4.72819338537683   -1.62732555486216    0.29024494442781
H         5.32276793955628   -2.35887679138820   -4.31978005615414
H         6.81529607072101   -3.11258996507010   -4.57504103288652
H         9.64657124933092   -1.87957780719455   -1.40581033223694
