32
 energy: -49.230005760049 gnorm: 0.273351814188 xtb: 6.4.1 (79825abcba525fcdf90b791dcacef51065a7a4e7)
C         2.30214788721704    1.01707624590065    1.83294488643471
C         3.44822082103609    0.80237834397767    0.80940303910386
C         3.62372845672470    2.14591379180252    0.02898210873360
C         4.37573445861370    2.21134544079177   -1.36368843491768
C         4.47633453598544    0.58096647190842   -1.45178998362579
O         3.03574954680068    0.29228555822147   -1.47412941945804
C         3.05644757311693   -0.31145033515222   -0.15131149337471
C         4.04255777356605   -1.46527029130095   -0.45268933408041
C         4.77600253236705   -1.05628614508455   -1.76612329206761
C         3.90125600420661   -1.53847882673949   -2.91185403871102
N         3.18134634030101   -1.89801068918530   -3.88268205809523
C         6.20004251168532   -1.42857521899035   -1.80707840214868
C         6.97359547122457   -1.53321854335527   -2.94799741491839
N         6.45541660318411   -1.33748281397525   -4.17288876826180
N         8.29135520296139   -1.76909304572422   -2.76810905775061
C         8.58854032654392   -1.74994357416799   -1.48981140350296
S         7.25425440073600   -1.51745365528781   -0.43993274273552
H         2.57021319300903    1.79216202046016    2.56195865208008
H         1.98787150718411    0.13949705078682    2.41243215359357
H         1.43345285159563    1.48451753901223    1.34914264581417
H         4.36166258802784    0.64444034405270    1.38284591446120
H         4.15315312298391    2.82690556408614    0.70240340182956
H         2.58228926049015    2.50821519770403   -0.04584018251611
H         5.32381884146429    2.74045202045716   -1.20585804727239
H         3.76499528660564    2.59207034333754   -2.19813481500370
H         4.96912374692857    0.43326716276720   -0.47028145159938
H         2.03285809691955   -0.67835065009348    0.00267825700833
H         3.51763940085394   -2.41871164114148   -0.56905567268952
H         4.79633244096593   -1.57780979392599    0.33658009789001
H         5.44442079807272   -1.44254496309681   -4.18412463115963
H         6.97378191924756   -1.59018439040898   -5.00938225150034
H         9.62944367564461   -1.80230187156600   -1.19969041935439
