32
 energy: -49.225602362028 gnorm: 0.280601596002 xtb: 6.4.1 (79825abcba525fcdf90b791dcacef51065a7a4e7)
C         2.31935359739091    1.02442595141188    1.89497288017251
C         3.36171989699619    0.93152152003187    0.74952207998627
C         3.44942666671604    2.27009453618220   -0.05389378985576
C         4.16880978002717    2.31213203571449   -1.46458381754004
C         4.32760122598685    0.68506605266575   -1.52340050374626
O         2.92421718033308    0.25209614720065   -1.47680537737303
C         3.07225422047761   -0.27653849801163   -0.13017879652883
C         4.22954971119487   -1.28144494930605   -0.34318722670623
C         4.89295083491617   -0.90167112741984   -1.70185893227973
C         4.06102648418535   -1.48119224416337   -2.83431087677400
N         3.26690292286292   -1.81447555417985   -3.75535927605899
C         6.30109531055778   -1.30936850450308   -1.83998328259701
C         7.06360081263694   -1.49058556051955   -2.97874416311994
N         6.63600851044507   -0.97788571462691   -4.14557077307014
N         8.28349956326378   -2.03394629705231   -2.77602893657522
C         8.50878010497767   -2.35715084652651   -1.52402331034032
S         7.22879838172227   -1.87072661517887   -0.49365737996595
H         2.72449638003664    1.69521523747266    2.66307384750615
H         2.15795891040453    0.01805491721262    2.30226819855242
H         1.38213366040691    1.50214201239978    1.57779282080870
H         4.31664885730900    0.72527858818819    1.23297997790604
H         3.83109702462644    3.07101744567561    0.58672055543318
H         2.42064148650808    2.63799222385060   -0.22035287651983
H         5.08675448136070    2.90787916462469   -1.38590038237747
H         3.46827267143333    2.75762726673123   -2.18917770559810
H         4.84471171247590    0.71757890153482   -0.54383174461171
H         2.11648824186491   -0.73973845498187    0.14914412259611
H         3.76829276426987   -2.27327885476720   -0.30271054288343
H         4.95810116108197   -1.34627275602556    0.47461333728463
H         5.63216160094510   -1.05133514863339   -4.28760380239837
H         7.18453423692206   -1.23634423736162   -4.96080126663455
H         9.41982082043095   -2.71951335723551   -1.06676016627977
