32
 energy: -49.231776350792 gnorm: 0.281605578815 xtb: 6.4.1 (79825abcba525fcdf90b791dcacef51065a7a4e7)
C         2.43769769091231    1.13258718957373    1.87044855819561
C         3.46420217407752    0.84690287276709    0.74266786655799
C         3.70867216416102    2.17314543728890   -0.04869952046765
C         4.56886817810576    2.13165449293461   -1.37823586459244
C         4.44025656110128    0.50259840521915   -1.45342346885288
O         2.97630286483225    0.39655735827190   -1.38475251884108
C         2.94829304501393   -0.30341189282460   -0.11037769247351
C         3.89821652689905   -1.49682623281531   -0.37104991427021
C         4.66338190573812   -1.16019909529805   -1.68692304859298
C         3.93789457165787   -1.69611777107264   -2.91038107811072
N         3.46305534384807   -2.26651242285647   -3.92980140048918
C         6.09799725635542   -1.46992893098322   -1.80571948099446
C         6.90241601033917   -1.32533430089399   -2.92063358767028
N         6.48816821178445   -0.98177776329473   -4.15252169392802
N         8.23086133943021   -1.52652608075234   -2.78191736056141
C         8.46483011860190   -1.78898931169276   -1.51736120993329
S         7.12798255347608   -1.75007797424389   -0.44594150070435
H         2.76107876263707    1.94097047084398    2.53829523928203
H         2.24898168522781    0.19777718167205    2.41380562129298
H         1.50777382668554    1.47546691488999    1.39624170874073
H         4.42046891605650    0.60224320542370    1.20510983028273
H         4.25206163323718    2.83905260509407    0.62867189760700
H         2.75488670670229    2.70211326654289   -0.22742450359187
H         5.63745703512405    2.37064283175906   -1.30945622804669
H         4.10347829580147    2.62529801020830   -2.24655774421404
H         5.03654968396437    0.38421133452314   -0.52690616741292
H         1.93568997348978   -0.62527644019008    0.16729537193261
H         3.31626127034626   -2.40739114501522   -0.54520630570949
H         4.55213022077690   -1.61841176036940    0.50153329601282
H         5.49817007058714   -0.96734740499612   -4.38267872497025
H         7.07922033541814   -1.06174650468880   -4.97504489757359
H         9.49380577809054   -1.77739497259874   -1.18349593238682
