32
 energy: -49.233998728623 gnorm: 0.281859413455 xtb: 6.4.1 (79825abcba525fcdf90b791dcacef51065a7a4e7)
C         2.04731624451860    1.17411842006392    1.66117483551014
C         3.34148401524176    0.96234195195211    0.83202057947271
C         3.59546233201018    2.24978773855518   -0.01822974698656
C         4.47815219378642    2.19517983736452   -1.33246037912168
C         4.54803176167256    0.56112146956522   -1.36389232208875
O         3.09133363388398    0.36838167847833   -1.36222755918003
C         3.09518976372500   -0.25480341214200   -0.04830283739160
C         4.05819132728771   -1.44666246740413   -0.26427135030434
C         4.83237157033125   -1.09580598952627   -1.57112355702153
C         3.92187626443424   -1.46175800126872   -2.73192832219071
N         3.24833090813646   -1.78589210397433   -3.74746458272017
C         6.22566276889351   -1.50247199531278   -1.81917349380872
C         6.95017272514492   -1.52182128309790   -2.99634873099875
N         6.43086833167752   -1.31961218959002   -4.21971093180266
N         8.27408969284458   -1.77485757333767   -2.90857733985346
C         8.61894362686111   -1.93245829001029   -1.65200725720766
S         7.34701751465932   -1.72504215213452   -0.52249488115491
H         2.01489283514204    2.10047836604210    2.24844309564862
H         1.94215833078326    0.38142180400854    2.41303537298194
H         1.12001850810702    1.14744383864052    1.07244364903988
H         4.12166181035554    0.79644185255198    1.57495851001432
H         3.98848341133052    3.00902657238658    0.66487151406874
H         2.58966147949422    2.54610016976727   -0.36754317590539
H         5.46434900421904    2.67584917075428   -1.32240796763997
H         3.86087838780856    2.48319629823509   -2.19864403305066
H         5.01633038183580    0.52651563560578   -0.36014228763398
H         2.08160074934619   -0.61631668750742    0.17080800438284
H         3.42521414892829   -2.32864396234194   -0.40419763458160
H         4.78388920385126   -1.69708588976601    0.51958981394537
H         5.50403749642737   -1.61926429820987   -4.51034821471594
H         7.09778460464081   -1.41107653716119   -4.98072275553848
H         9.63142116469623   -2.17536892155829   -1.35828116111923
