32
 energy: -49.228212524032 gnorm: 0.287479682241 xtb: 6.4.1 (79825abcba525fcdf90b791dcacef51065a7a4e7)
C         2.30099256647205    1.32418107510000    1.75153624831908
C         3.43590999825307    1.05462262182502    0.72854214606026
C         3.65885526503074    2.37268609333941   -0.08259985453844
C         4.18169003040686    2.19766652425255   -1.56763774077343
C         4.32327871034326    0.56943214560928   -1.49818776209435
O         2.89343826309845    0.26342982312906   -1.35313707499020
C         3.05992985788164   -0.23046311815298    0.00447959088721
C         4.06368741582691   -1.38098134341399   -0.24715703164431
C         4.77615613892421   -1.05983856284268   -1.59607275352681
C         4.13643653567304   -1.79990688040467   -2.75945058712831
N         3.74660078800915   -2.59010965640911   -3.66147487605793
C         6.19573695514948   -1.37297962186056   -1.83037885565508
C         7.04144909173534   -1.14066630288603   -2.89894429832118
N         6.60768905746173   -0.43579779720929   -3.95828053685538
N         8.29052774261404   -1.64798181426234   -2.81575290409654
C         8.42901846948044   -2.28985712797003   -1.67929041293652
S         7.08507194963424   -2.22595507787398   -0.61799875817910
H         2.59818522651692    2.18476078604546    2.36403695874950
H         2.22490622792519    0.48416085284680    2.45388749577059
H         1.30883489548178    1.50029278639185    1.31358093582449
H         4.30258158202717    0.97153188782282    1.38438762947708
H         4.39979001866863    2.98745150481930    0.43760749552801
H         2.71331092367102    2.94484195896522   -0.08891216000813
H         5.17675751758145    2.61879395967758   -1.75795480346982
H         3.37561094052371    2.49322632831064   -2.25838766039181
H         4.84442278991554    0.55031919011223   -0.52040514836213
H         2.06855020851330   -0.63301400905643    0.25183210814197
H         3.51541353053571   -2.31459891349355   -0.40804459817451
H         4.83918940850956   -1.50894854937095    0.51835500225789
H         5.59634572793521   -0.49629931969195   -4.04074904723828
H         7.08432684140390   -0.56017972380534   -4.84689046019544
H         9.39344091908502   -2.64364673951438   -1.34000644861118
