32
 energy: -49.222600305314 gnorm: 0.287567593394 xtb: 6.4.1 (79825abcba525fcdf90b791dcacef51065a7a4e7)
C         2.51578147478973    1.30250436525171    1.78664688312865
C         3.58911562177828    0.86424098850532    0.75558175890984
C         4.00805499486796    2.13894712535906   -0.04726400307070
C         4.36506382338129    2.02118107106542   -1.58609518803437
C         4.24310783811563    0.39231502597111   -1.67520178350902
O         2.80892607872729    0.30825774437723   -1.36669267280446
C         2.99695112388102   -0.28264689310540   -0.05130262050366
C         3.85633260215905   -1.51573542222123   -0.41940390884698
C         4.63197674606255   -1.25478286158055   -1.74627914952293
C         3.94778039742070   -1.93480382698550   -2.92094380734263
N         3.39699996609420   -2.46089275384450   -3.92588733059237
C         6.08670788032785   -1.48066757065702   -1.77627521306718
C         6.92239367368461   -1.12347117333753   -2.81794242892916
N         6.48131660880337   -0.74305036599572   -4.02951647751049
N         8.25087657031398   -1.31350502846296   -2.66462041308182
C         8.48825695517051   -1.69647601098024   -1.43185345478366
S         7.10154871400624   -1.94599664332099   -0.45645845562829
H         2.80349554221414    2.25503438350759    2.24923224370448
H         2.58869865619909    0.63600936179852    2.65566234583076
H         1.55874618142563    1.41250856381150    1.25827243401388
H         4.41630147255786    0.44165087060231    1.32596598282556
H         4.80577566989775    2.64361940555905    0.50634607709031
H         3.12053816929001    2.78628216595115    0.07409295521314
H         5.34805115964686    2.42600935058578   -1.85734813411001
H         3.62964506742184    2.58964648897258   -2.17792359707553
H         4.81993238413929    0.27996012134461   -0.73569919180897
H         2.05463796940942   -0.66361870251866    0.36459459656134
H         3.26931206776620   -2.43960512719950   -0.41782862858269
H         4.66115746885658   -1.76613991526694    0.28297928183694
H         5.57483927574690   -0.28896864677203   -4.10290212176607
H         7.15873316157000   -0.30755851979065   -4.64898052252361
H         9.49803117912914   -1.95539591350611   -1.14253034848884
