32
 energy: -49.229126679837 gnorm: 0.286255159025 xtb: 6.4.1 (79825abcba525fcdf90b791dcacef51065a7a4e7)
C         2.12579030570350    1.27570839417412    1.73459524465543
C         3.30000047204173    0.89980831555281    0.79271102297374
C         3.57228148805666    2.22066857563627    0.00142189826086
C         4.46871909706745    2.23107613449122   -1.30457077700152
C         4.49163538293865    0.59559507116237   -1.33092195846978
O         3.04496870309467    0.34199072983741   -1.37520721191895
C         3.03905916039266   -0.31961405957101   -0.08021034644838
C         4.09824254942397   -1.42078323767838   -0.32536214857386
C         4.82077340447097   -1.03472948810812   -1.65172170247068
C         3.95036802478565   -1.47646705978881   -2.81690522724086
N         3.25594116984950   -2.14877733574424   -3.62672643302445
C         6.21952092646942   -1.45223678313204   -1.84500744204601
C         6.93452879292165   -1.48504379498290   -3.02768154581320
N         6.52701998410230   -1.30816564268797   -4.29647282796897
N         8.23039071003874   -1.84180338262363   -2.89369721862915
C         8.56216621396495   -1.91468324253346   -1.62588645418377
S         7.27614417018241   -1.73840610217099   -0.50709721109402
H         2.39773300968613    2.22217504646039    2.21866763433556
H         1.98156022383012    0.56398821402608    2.55762164040367
H         1.19045157091137    1.39283498657558    1.17013103169103
H         4.11204151844839    0.55559034074935    1.43322669773777
H         3.97933276096914    2.93533693067034    0.72329093940690
H         2.55271297948298    2.54080645675019   -0.28044345476047
H         5.49578153244699    2.56776603667006   -1.11612749392538
H         3.92163623834440    2.70777085155065   -2.13385784436434
H         5.07179528991195    0.50164084108000   -0.39145275853770
H         2.01457474621322   -0.68752179956858    0.06518455689935
H         3.66710348778520   -2.42478352589683   -0.39042641765092
H         4.82417046793358   -1.33202854065015    0.49252469235959
H         5.54986254759144   -1.29043225021878   -4.57598254138469
H         7.23245957633232   -1.20680589659982   -5.02060210917970
H         9.58408678333310   -2.12799478565854   -1.34204161089384
