32
 energy: -49.230003210314 gnorm: 0.283432981429 xtb: 6.4.1 (79825abcba525fcdf90b791dcacef51065a7a4e7)
C         2.53318787086738    1.12284641520508    2.00629620424784
C         3.50331272758737    0.93942689493208    0.80945397862741
C         3.40147694086553    2.20109715411828   -0.10856829119405
C         4.17354028370242    2.21436402359567   -1.49170521700083
C         4.37546079249014    0.59232295259996   -1.55673393396874
O         2.95950691737726    0.22253672575326   -1.42462184125826
C         3.07841357123929   -0.24170496603061   -0.05162746332249
C         4.02586141408132   -1.41766359260654   -0.38927567090963
C         4.78978499449829   -1.04418918836096   -1.69589559970593
C         4.02497945869622   -1.50064363628619   -2.92760664402754
N         3.38212876884968   -1.89936944230316   -3.93646782172974
C         6.21545161518135   -1.39964795632219   -1.79228088922060
C         6.97848982874449   -1.43807558404143   -2.94437750604655
N         6.56989243493386   -1.06375860155650   -4.16916957474854
N         8.28646282951179   -1.71637595142534   -2.75400193753456
C         8.54983848926654   -1.98713341308257   -1.49699984804571
S         7.19426960441443   -1.88720424940334   -0.45341810321791
H         2.76967746031984    2.04667724544788    2.54914729583350
H         2.56768909629341    0.31377647740724    2.74719827651688
H         1.47199457146470    1.22474457457083    1.74043424486305
H         4.49581459055835    0.75820941759673    1.22207642398912
H         3.65196388313463    3.10507878096041    0.45500070965275
H         2.35254834725394    2.37036972486707   -0.41279170614409
H         5.17253699551241    2.66397638080620   -1.55155927224112
H         3.46533970814059    2.51100390450853   -2.28209200741619
H         4.93930612051729    0.56076185658994   -0.60326781552884
H         2.09273004896227   -0.59548524237426    0.27902584381635
H         3.50542313768315   -2.37945294862037   -0.43656269186868
H         4.77299963492932   -1.47227416766736    0.41234131350922
H         5.59499885262655   -0.87632831458240   -4.38763972221107
H         7.24364225011607   -1.30984364474468   -4.88874262603791
H         9.48813967048308   -2.26555434326176   -1.03606163327999
