32
 energy: -49.226598692949 gnorm: 0.289235291619 xtb: 6.4.1 (79825abcba525fcdf90b791dcacef51065a7a4e7)
C         2.28783285021299    1.48856322219434    1.64512802522011
C         3.38217323519543    1.10811133821442    0.61319209814353
C         3.45172834108922    2.32030502392310   -0.37204686422207
C         4.05164971851671    2.05352590378155   -1.81366013172607
C         4.32192283337578    0.46773234537763   -1.51662631484015
O         2.90329399052379    0.11168880846151   -1.37575035499027
C         3.08699604090515   -0.26134296885497    0.01776087604256
C         4.21391174759596   -1.31512013357183   -0.10122271243740
C         4.83667790639328   -1.14602597918196   -1.52033774656728
C         3.98938180955039   -1.92715821133216   -2.51145430473286
N         3.23899942246709   -2.71849349201681   -3.14450635932511
C         6.24010483961770   -1.47937718723976   -1.81603383765829
C         7.13938358567952   -0.80950715299205   -2.62449068546382
N         6.97637629048961    0.29864153331628   -3.36787198029291
N         8.34837851241515   -1.40529102719113   -2.71314823533078
C         8.46834577364510   -2.46809399039943   -1.95236685390620
S         7.07980983985268   -2.74216300418328   -0.98620442844050
H         2.60177650889973    2.40174549084566    2.16629552236127
H         2.18706411351724    0.65001435726055    2.34612862626986
H         1.32579579002757    1.65295651390474    1.14049293342477
H         4.33718355624097    1.10275439269198    1.13862867337605
H         3.99238974000806    3.12944021589654    0.12847486514269
H         2.40453180377611    2.66845842371602   -0.43225405472403
H         4.97506410229590    2.63538232726885   -1.92536144731575
H         3.29614859374495    2.14955114568527   -2.61005937447652
H         4.98777595409428    0.72511476791678   -0.66903608371269
H         2.20432962008618   -0.66198260363989    0.53395073599524
H         3.75871718129383   -2.29147565156892    0.09283561979190
H         5.04390924375789   -1.16384125545177    0.60020902484667
H         6.02176386253924    0.64350439333671   -3.42320313461697
H         7.66598700647699    0.47330405632230   -4.09327676292182
H         9.32530207732922   -3.12588341287180   -1.89465786514938
