32
 energy: -49.229623716459 gnorm: 0.280119184643 xtb: 6.4.1 (79825abcba525fcdf90b791dcacef51065a7a4e7)
C         2.28413457320934    1.09290149797565    1.88401614592178
C         3.35784116663103    0.99967532645388    0.76791610450438
C         3.44203907085645    2.26238881372220   -0.15045888319318
C         4.27215596189079    2.20723360154414   -1.49849056664107
C         4.35488521308691    0.57436434552137   -1.44453034028135
O         2.91440074759018    0.29116387760838   -1.38189788839687
C         3.05735541981781   -0.25406530548854   -0.04135255155794
C         4.13692511155803   -1.34558580307959   -0.23540073930482
C         4.82035908147974   -1.04644589268131   -1.60425110361510
C         4.05610097070876   -1.62652112064305   -2.78315420715856
N         3.50313769383949   -1.99234285350513   -3.85574276910076
C         6.21761501003144   -1.46269192806028   -1.81060386230860
C         6.97937338942247   -1.40658927156853   -2.96282227144145
N         6.50835818734802   -0.90378009850765   -4.11716548489153
N         8.28225145633060   -1.73870805316846   -2.83362021973757
C         8.55185603810023   -2.15079242574189   -1.61697301055355
S         7.25898333257252   -1.93315277712287   -0.51346549055487
H         2.60246946529986    1.93783969556723    2.50757077490800
H         2.30236033610849    0.17138778472143    2.48000329123702
H         1.26476997948900    1.26435543220475    1.51159647884322
H         4.31334641304935    0.96036526350084    1.29100447872381
H         3.77920642015887    3.18754457669023    0.32697331192784
H         2.40520249745929    2.44859596072395   -0.48475381610627
H         5.27676244432790    2.64500295608247   -1.44508633315357
H         3.66212861568886    2.64498783977287   -2.30502166237503
H         4.95529694784724    0.67869832081030   -0.51898430603938
H         2.15445525463541   -0.75272754338454    0.33570362908815
H         3.71408200725868   -2.34429983323730   -0.38340353808033
H         4.83716439460685   -1.45509792138989    0.60213114688755
H         5.50526962040521   -0.79403933552635   -4.23983213038967
H         7.11294363324945   -0.96550025637992   -4.93138234547799
H         9.52528290361394   -2.44213863964690   -1.24555831076279
