32
 energy: -49.233782646828 gnorm: 0.286451065308 xtb: 6.4.1 (79825abcba525fcdf90b791dcacef51065a7a4e7)
C         2.45354716000590    1.46706318225752    1.71839315892063
C         3.49651824866515    1.18505838430991    0.60488479613231
C         3.44878170723510    2.31231078960964   -0.47769106518414
C         4.23408666436254    2.05236133509896   -1.82863443047452
C         4.30588581145690    0.42733308390614   -1.65500860227463
O         2.89441914977349    0.16485492357826   -1.34197840418452
C         3.13857926273619   -0.18568198109110    0.04808721277071
C         4.16000958330056   -1.33199306671787   -0.14476872937095
C         4.75385485319668   -1.20453076826498   -1.58053304650212
C         3.85727856611908   -2.00750522258901   -2.50885047514098
N         3.31895936691258   -2.86032793662560   -3.26578244726073
C         6.18735312422760   -1.50073678874111   -1.74025491622849
C         7.05263328991385   -0.77261842775293   -2.53534265021659
N         6.74958413393203    0.32381599576227   -3.25170388003797
N         8.32582481542965   -1.22348875668275   -2.54900315766882
C         8.47941111266862   -2.28372802551096   -1.79069284078858
S         7.03492805861038   -2.84445761213951   -1.05880027029456
H         2.61899765818031    2.41940946526209    2.23775885509262
H         2.54191454121878    0.72158265653443    2.51912430700907
H         1.41666132832257    1.47978849467681    1.35520880665550
H         4.50492245976863    1.17147225109929    1.01851913796257
H         3.86198744155413    3.24800416035653   -0.08874962223659
H         2.38656355314760    2.43909271268501   -0.75531530877741
H         5.27485681220163    2.39838126994667   -1.85684638230244
H         3.65560347393122    2.30564976367592   -2.73166085480163
H         4.92249690295234    0.56784673620909   -0.74502949731192
H         2.20983722711146   -0.58621641171291    0.47595927419345
H         3.70865334133379   -2.31768384101972    0.00630102970569
H         5.04856637197172   -1.26831162190931    0.49569917407423
H         5.77870664376360    0.49468139238403   -3.49965293119905
H         7.46895473126589    0.72875123310804   -3.84400062458229
H         9.42367576126439   -2.81165339530670   -1.78359095328346
