32
 energy: -49.231690987745 gnorm: 0.280690895184 xtb: 6.4.1 (79825abcba525fcdf90b791dcacef51065a7a4e7)
C         2.54090359993031    1.36378655359927    1.84345414475732
C         3.51515550422683    1.12583189508495    0.65963529173804
C         3.41848235022343    2.28831002857268   -0.38163611538628
C         4.00824056122488    1.99965652463237   -1.82322897509091
C         4.24909049912565    0.39949728714395   -1.58343828576829
O         2.84621577343058    0.08853660852350   -1.27624650482219
C         3.16393727697904   -0.24659300181469    0.10270740713707
C         4.15653691655403   -1.40893182992046   -0.13865707704022
C         4.73037675657638   -1.22454585079559   -1.57637319477263
C         4.08878801119337   -1.91262144818692   -2.77023503724920
N         3.69881041336162   -2.49831018336287   -3.81662230822029
C         6.17368217246636   -1.45235973750870   -1.75840802636120
C         7.01335935158999   -0.85094312664043   -2.67725017546083
N         6.73824574450143    0.04629916933374   -3.63977259168479
N         8.26371053864868   -1.36084861972505   -2.64399936812458
C         8.39760308816365   -2.25804093172043   -1.69539548081977
S         7.03024931374773   -2.51148690712622   -0.69403416161929
H         2.77847442468574    2.33609643770580    2.29317809197461
H         2.69047315660589    0.60543144508373    2.62271459954091
H         1.49947607928992    1.30816982023265    1.49771937196333
H         4.48601905264406    1.10984943697183    1.15493876840179
H         4.03459375071798    3.11259238081467   -0.00947774305216
H         2.37922079710914    2.65517456119473   -0.46411108252125
H         4.93846696281691    2.54735130911560   -2.01928373578101
H         3.25489914972468    2.21572153096622   -2.59785609698393
H         4.94372706596748    0.68294773345742   -0.76787027864140
H         2.23795299600835   -0.56264626038243    0.60143333005376
H         3.57159209828975   -2.33405636471339   -0.12793410391401
H         4.94208431352196   -1.47202882415351    0.62470500811708
H         5.76795413086777    0.21492904037584   -3.89151644024582
H         7.45390791650802    0.18417257635700   -4.34765719669472
H         9.33661054370118   -2.78795629850372   -1.60681747868502
