32
 energy: -49.227869043957 gnorm: 0.284132542379 xtb: 6.4.1 (79825abcba525fcdf90b791dcacef51065a7a4e7)
C         2.21305866883092    0.87099405459316    1.90616121360683
C         3.35496078309182    0.67727188435867    0.87381071468644
C         3.67796228854125    2.09156452316518    0.29037809981706
C         4.39713640515097    2.26863436318816   -1.10989345697795
C         4.36706848117578    0.66305609516914   -1.42171424551937
O         2.92296524408432    0.39634736778768   -1.37118584609540
C         3.05652737029015   -0.39861581394916   -0.16082746978152
C         4.11777392701682   -1.44529682162924   -0.57646797669067
C         4.80520822834102   -0.91070186167432   -1.86951101856039
C         3.98097437063992   -1.21908322495562   -3.10883733319403
N         3.24214340548924   -1.36987929257188   -4.11949528076115
C         6.24939894772994   -1.17009311115417   -1.99278184036133
C         6.91079961851393   -1.92514127128454   -2.94329855253145
N         6.50292747234100   -2.29489753262942   -4.16971661025045
N         8.19796266190437   -2.18086993151264   -2.62345254744862
C         8.57708007553911   -1.65966935594951   -1.48005824210309
S         7.31076439560697   -0.83750376671433   -0.66943870208261
H         2.36000301215851    1.68198431413979    2.63057835514107
H         2.06847441986803   -0.08056038636465    2.43375947030241
H         1.27783242927441    1.07975548940095    1.36860416605528
H         4.24227015539765    0.43795542730269    1.45995635820272
H         4.27839440215469    2.54234980133174    1.08650021314517
H         2.69807205961431    2.60239424127044    0.27236639282419
H         5.44192552829603    2.58700735386911   -1.00605446728573
H         3.86025541591914    2.77634932054641   -1.92735224983333
H         4.89641106617111    0.52585477831908   -0.45787425891703
H         2.08098244849798   -0.89639517658533   -0.07963688828421
H         3.59671588217142   -2.36782484286280   -0.85137049685735
H         4.70628029592089   -1.57336473127588    0.34061788629763
H         5.50460973822880   -2.38477019257980   -4.33871785268463
H         7.15904969470497   -2.90438778694602   -4.64962003264667
H         9.48580613289938   -1.80228586149207   -0.91061215843152
