32
 energy: -49.233546606287 gnorm: 0.279219011952 xtb: 6.4.1 (79825abcba525fcdf90b791dcacef51065a7a4e7)
C         2.26228746979247    1.28909884223135    1.80259121488540
C         3.39849353789608    1.02869683462181    0.77865623894103
C         3.45443380138370    2.30781620585043   -0.11893585902772
C         3.99614253665478    2.15862076120785   -1.60002259842962
C         4.35305934130941    0.56646185163411   -1.48315408251833
O         2.95335738701150    0.15729305622893   -1.30277623192747
C         3.16194515092745   -0.29419468359445    0.06376051021768
C         4.25502411891588   -1.35836994543133   -0.19556900438165
C         4.85684408003715   -1.04657136365531   -1.59946087353206
C         4.13126525023382   -1.70194685121469   -2.76325148179618
N         3.51019573540906   -1.98447304976866   -3.82367203510532
C         6.29994465319339   -1.30474861575002   -1.73719834132816
C         7.05427948914640   -1.13366037515005   -2.88294629529907
N         6.72179692269465   -0.50732583269314   -4.02502379849566
N         8.27214765275978   -1.71549123612265   -2.83043626158572
C         8.45485320906094   -2.33838292227439   -1.68966668740104
S         7.13953216106752   -2.29093575628036   -0.59226293073725
H         2.27567615661241    2.32449431361916    2.16570964874151
H         2.36530190273706    0.66199881476755    2.69749565747961
H         1.29988634030113    1.11059812708385    1.30347339733813
H         4.36009142680412    0.94632453821770    1.28531323205518
H         3.94124650754990    3.08275960021370    0.48107466685950
H         2.39303585660037    2.58275841998943   -0.25785117208527
H         4.89213509542585    2.75415246638147   -1.81512147525224
H         3.25333509028490    2.37781433972318   -2.38388854374094
H         4.91225958490457    0.70588335185019   -0.53664891952705
H         2.24536973866647   -0.80641531513933    0.38560462841698
H         3.71753085538400   -2.31187200101657   -0.20367153982164
H         5.03486597828126   -1.38205981433983    0.57584079898707
H         5.73780454948024   -0.31408040101032   -4.19143301573133
H         7.17823519273843   -0.85656826562762   -4.86286379891041
H         9.42477007651215   -2.77212787992874   -1.48590716787168
