32
 energy: -49.226908554011 gnorm: 0.283768721472 xtb: 6.4.1 (79825abcba525fcdf90b791dcacef51065a7a4e7)
C         2.02363060179851    1.06287349624711    1.72217945231480
C         3.30205790982534    0.93516124941382    0.85239242612533
C         3.48388461388386    2.27698496173286    0.07047463589229
C         4.32413761424957    2.28383349087435   -1.27237813405904
C         4.54792336624231    0.66338324411500   -1.28125429625069
O         3.11122336912113    0.37223739621939   -1.38248694288930
C         3.07739002377419   -0.25426517813794   -0.07057134716643
C         4.13443939213705   -1.35654409440907   -0.31991094897042
C         4.88493356282795   -0.96010319607951   -1.62754664279893
C         4.02917414327459   -1.45322222361197   -2.78292522686728
N         3.32576736205422   -1.93943159551220   -3.70967194660077
C         6.31305690052635   -1.26499936229712   -1.81640744993533
C         6.89843263235668   -1.58284361946564   -3.02774591362461
N         6.42609222099938   -1.45773695516880   -4.28011306856086
N         8.21954956380984   -1.85317164659395   -2.94989908503917
C         8.60541065343822   -1.96499038226984   -1.70036381798196
S         7.38200850726061   -1.70116867243286   -0.52976525666862
H         2.05734904157778    1.77516603570648    2.55619410511249
H         1.72287200794276    0.08039955627201    2.10819707510892
H         1.22170496446750    1.38187540631181    1.04221615257427
H         4.14960931492140    0.83647411403677    1.53068032106444
H         3.94366980227395    2.92246161563221    0.82512288402632
H         2.51999229744033    2.74908714510392   -0.19313001758888
H         5.29198518340809    2.78338205557712   -1.14027771635047
H         3.71387996786945    2.51621078532230   -2.15998218492825
H         5.10032335966642    0.57014656974014   -0.32512854110383
H         2.12368906669100   -0.79283521356599    0.00980837791850
H         3.68478950604595   -2.34983340729535   -0.41646221949347
H         4.87260084811694   -1.51474103431420    0.47625424306516
H         5.44527012102312   -1.32284555354019   -4.51048044551095
H         6.99849253522547   -1.92957268468812   -4.97438315999431
H         9.63803847493878   -2.17464244787680   -1.45517582309859
