32
 energy: -49.223979752891 gnorm: 0.281023154047 xtb: 6.4.1 (79825abcba525fcdf90b791dcacef51065a7a4e7)
C         1.98712790627680    0.98044775047223    1.73376224365772
C         3.26647615562718    0.83154648646139    0.86871152758710
C         3.50546845248172    2.18447659795031    0.12211253837109
C         4.32887521011276    2.31471511850801   -1.22487105690112
C         4.51391262497034    0.69696794204236   -1.38194768711133
O         3.08184823904661    0.37895753142340   -1.29720214963791
C         3.10192850164270   -0.37020465335584   -0.05095758835697
C         4.28588548471962   -1.31659027991531   -0.36263454933734
C         4.90198605628177   -0.91323563615749   -1.73669536780319
C         4.01584920431404   -1.41146084205609   -2.86670570759661
N         3.17975709452479   -1.58832411068520   -3.79391092332149
C         6.29365262046057   -1.36588078323001   -1.89961529630191
C         6.94669296411598   -1.64900950849186   -3.08469210110797
N         6.47618393887759   -1.62974078157926   -4.34383093830865
N         8.20477137131698   -2.07792075064624   -2.84435652897409
C         8.59494070285748   -1.92772436540752   -1.60019434840779
S         7.35471182045281   -1.41268731310349   -0.53568279295417
H         2.10141907080801    1.76712310835687    2.49017314218138
H         1.81225258841615    0.06288911727988    2.31015200543592
H         1.12595896491311    1.12624309023461    1.06718230950254
H         4.07646395695635    0.67404159822307    1.58093970464200
H         3.92144463004110    2.87401366044792    0.86308417550990
H         2.48551364206484    2.57851676399768   -0.03876261540326
H         5.29290445863924    2.83760581320113   -1.19386891639375
H         3.71516180521855    2.75310905087807   -2.02825213858760
H         5.08286569340932    0.52969904341323   -0.44582332866795
H         2.21559819515369   -1.00856201267938    0.06298349128388
H         3.88329831691165   -2.31411705130965   -0.56510615091492
H         5.06640120541937   -1.37245286298977    0.40643125098677
H         5.47066691163100   -1.67451812007649   -4.48598336827395
H         6.99231444994880   -2.36323241219541   -4.82120015088133
H         9.61064748199466   -2.12464253202873   -1.28403879582700
