32
 energy: -49.232468106083 gnorm: 0.281499108987 xtb: 6.4.1 (79825abcba525fcdf90b791dcacef51065a7a4e7)
C         2.33330455392387    0.75427953950709    1.97816735400413
C         3.44293628875873    0.64870807847761    0.89891374649772
C         3.59526680799117    2.10213840142480    0.34278160011154
C         4.33433344172983    2.30218693757921   -1.04397240207880
C         4.42279781323138    0.71651335028911   -1.43618558890693
O         2.96815728268527    0.51968071091628   -1.36986313643408
C         3.08085430068452   -0.33877131025431   -0.20147441264654
C         4.00057305665838   -1.44480675608788   -0.77186499229643
C         4.77879128555611   -0.84663928270287   -1.98301736065949
C         4.07743663417062   -1.03655479228342   -3.31809188706039
N         3.27604569357935   -0.99318558208469   -4.29068214696896
C         6.20714682916635   -1.20403056152278   -1.99845337144154
C         6.89059619279516   -2.11300727854176   -2.78438523487414
N         6.39083437860176   -2.76222531841929   -3.85018761187900
N         8.19234821262757   -2.35277298567318   -2.51523583884173
C         8.53866797318819   -1.71973378956624   -1.41885333584667
S         7.31291996607993   -0.71872213368614   -0.76148495846847
H         2.68904355616536    1.47673074748747    2.72354782787538
H         2.19313255091353   -0.20478502997207    2.49320845960985
H         1.36368366814659    1.07033316903167    1.56933673393015
H         4.32426603720084    0.31584016059827    1.44719636197291
H         4.18160554136381    2.74200714492677    1.00934846809362
H         2.58895128920389    2.54918318327754    0.24824947815130
H         5.28975339583126    2.78321456186860   -0.80001884139250
H         3.71171958765412    2.82112569055575   -1.79050378743892
H         4.96098500398359    0.51006276099450   -0.48974594803390
H         2.06688977864074   -0.71754879402874   -0.01581972396588
H         3.51416438868160   -2.38954939954562   -1.03454116298740
H         4.74133854753372   -1.75699425378331   -0.02514343999262
H         5.50860379950382   -2.46873561911732   -4.26105232935682
H         7.09752577696234   -3.19963425837186   -4.43460417916523
H         9.53658372011278   -1.76538885176243   -1.00355689260912
