32
 energy: -49.228894679169 gnorm: 0.288611371905 xtb: 6.4.1 (79825abcba525fcdf90b791dcacef51065a7a4e7)
C         2.57734923464333    1.30191034214511    1.84025256844616
C         3.56818953908242    0.94703707705288    0.70028909323632
C         3.72610401839717    2.19631233675745   -0.22670691312634
C         4.36310509152094    1.98864561787369   -1.66212662105594
C         4.37093087837682    0.36026069630583   -1.50618054718979
O         2.91321970476616    0.23101911580904   -1.37390970079766
C         3.02677093902095   -0.28119103215921   -0.01762080041178
C         3.82655810016003   -1.55374659540618   -0.38570398946114
C         4.69730784151592   -1.29539696905329   -1.65273529376589
C         3.97466981797677   -1.65707008258573   -2.94012687608036
N         3.28901729195748   -1.97458187998100   -3.94963517796167
C         6.15084295036201   -1.50849441511748   -1.75269282367551
C         6.95249543030788   -1.19622322870670   -2.83476056561794
N         6.48099576731510   -0.64455727199576   -3.96636711240569
N         8.28076627163860   -1.30563847079836   -2.61518782483136
C         8.49746930215059   -1.79083984465174   -1.41504199341125
S         7.11856523370641   -2.08232359776879   -0.44022073325093
H         3.01435716482647    2.17408736987971    2.34265612872075
H         2.47893030809993    0.50608909278121    2.58972080178011
H         1.58092419706320    1.52662327785323    1.43548315795534
H         4.50726942874544    0.67517932823315    1.18234648322075
H         4.35617683104291    2.95672030856828    0.24480605118442
H         2.72114351665741    2.65445119408856   -0.26694942864968
H         5.40157833904139    2.34262016682023   -1.66024404096724
H         3.81170112371286    2.26673108404189   -2.57474740272562
H         4.97249055928205    0.37396527937342   -0.57561436148253
H         2.07990791354635   -0.56685799998736    0.45977724035867
H         3.12881125969266   -2.39178421988485   -0.48043045493521
H         4.53868644977895   -1.85614691041813    0.39225158888466
H         5.51735628601949   -0.89246747124330   -4.17425241822359
H         7.14068296270705   -0.65612393625656   -4.73899965961715
H         9.53786660277945   -1.97923956966808   -1.18597789747598
