32
 energy: -49.229056864341 gnorm: 0.275397341217 xtb: 6.4.1 (79825abcba525fcdf90b791dcacef51065a7a4e7)
C         2.51350149619188    1.15156690730846    1.91804148000136
C         3.58303763218185    0.71141493830222    0.88383890485846
C         3.91929691310030    2.06888747508887    0.18444969829467
C         4.49438676478392    2.11944546569692   -1.29069135265712
C         4.41924124121692    0.49964696275511   -1.50661684727135
O         2.96153866598620    0.40101491370646   -1.35010566384503
C         3.04858587042633   -0.32590391652959   -0.09360874874860
C         3.83052407232242   -1.56114963072602   -0.60083954530593
C         4.63836201114098   -1.14104289864885   -1.86623520980569
C         3.92996690222454   -1.41867200273147   -3.18209564347764
N         3.39170029504521   -1.89845042853014   -4.21656258715767
C         6.07259756150898   -1.47413684903945   -1.85270122720437
C         6.92475563550599   -1.68630836707079   -2.92033434121868
N         6.47841460244257   -1.79182744541185   -4.18399016803599
N         8.24494404197663   -1.59000516653438   -2.65141878201310
C         8.44269445720805   -1.42016596802607   -1.36503625198693
S         7.02035066178513   -1.25198891604732   -0.42414821237217
H         2.75893981010654    2.09415846361488    2.42337229023224
H         2.46095169911502    0.35775444487231    2.67422973211479
H         1.55679577011951    1.26900588321840    1.39067132959278
H         4.50694244438609    0.37711660863379    1.35585747133439
H         4.58278840190459    2.62004840074056    0.85790139386760
H         2.97188168166807    2.63775963700767    0.20010618413791
H         5.54037379306754    2.44346422826334   -1.35889095387863
H         3.83826390652515    2.63481195864381   -2.01052100167368
H         4.97656814491977    0.30665487552125   -0.56845051245979
H         2.00380609464335   -0.51580335845855    0.18645823930268
H         3.15521331212195   -2.37178535853646   -0.89231153593608
H         4.52216042018593   -1.97035168807074    0.14614134964002
H         5.49143143111609   -1.93995975460942   -4.37685761731015
H         7.10485891719523   -1.88161165881738   -4.97884131673888
H         9.43015864862803   -1.55412719456338   -0.94389468498540
