32
 energy: -49.218217862967 gnorm: 0.298714792985 xtb: 6.4.1 (79825abcba525fcdf90b791dcacef51065a7a4e7)
C         1.91140703739420    1.07798983666331    1.61893011467014
C         3.28592224811287    0.81860106829587    0.94763161670598
C         3.67866468528864    2.13144402138970    0.19454197079704
C         4.40139039492222    2.16922526967707   -1.21455905433170
C         4.44305833519881    0.53581382850088   -1.29360787987155
O         3.00880956532940    0.21641961899976   -1.28739229381844
C         3.09498628960425   -0.38405352906696    0.03426510204273
C         4.08710947803918   -1.51796982215886   -0.31853488509626
C         4.86238879351505   -1.07702047404984   -1.59713711112084
C         3.95652736498970   -1.31854591143439   -2.79357800354820
N         3.31575001564770   -1.40633068532384   -3.87604665405744
C         6.25243087544200   -1.47269950660504   -1.87889493833314
C         6.92089111334636   -1.72576831805165   -3.06217329644651
N         6.46325449890351   -1.85626429083781   -4.31944023627556
N         8.25490239596592   -1.88997384902688   -2.92824138820941
C         8.63812060571008   -1.53011846904016   -1.72558661533180
S         7.38426219248780   -1.25269538029247   -0.59090991810595
H         1.82047632914764    2.04555999016110    2.12845699379457
H         1.79532167079446    0.26578739639528    2.34801979607365
H         1.06585459340123    1.08821443875509    0.91740780061121
H         4.00149386846302    0.49256022266657    1.70249029690776
H         4.42786912895845    2.56771926239015    0.86229426426311
H         2.75481936962267    2.72855188020774    0.08763864395998
H         5.42628526094263    2.56078271986116   -1.21577826976142
H         3.78513103816501    2.59736925018097   -2.02151115340202
H         4.97013940505475    0.42523572608192   -0.32511765214952
H         2.08473198325379   -0.75895101015160    0.24616652436486
H         3.65892223567230   -2.51952678600192   -0.42656340078544
H         4.91520007915423   -1.65650031870931    0.38776737619594
H         5.48501197947801   -1.89870309971842   -4.59241886152290
H         7.06392445687109   -2.34521918432963   -4.97701209246378
H         9.67678054173162   -1.33938155304825   -1.49064763302329
