32
 energy: -49.227305820783 gnorm: 0.281494561185 xtb: 6.4.1 (79825abcba525fcdf90b791dcacef51065a7a4e7)
C         2.48154444639312    1.24875346787139    1.78577575897734
C         3.58288226677905    0.81997298942958    0.78057996814203
C         3.90930761020768    2.08693499536864   -0.07569161709348
C         4.46812355838936    1.99588563414370   -1.55513756865953
C         4.35486455426153    0.36395820385155   -1.55336638291092
O         2.89824405646726    0.24783464538555   -1.39879318916472
C         2.99390062753282   -0.30595563459081   -0.05754792998012
C         3.89046144549047   -1.53565954427298   -0.33781459277299
C         4.65623429740952   -1.29845638755443   -1.67484285818000
C         4.00364788679866   -1.76974649446324   -2.96418643454947
N         3.25681986836079   -2.18974795182671   -3.88932795332182
C         6.12108512764982   -1.40391003998664   -1.78094630127057
C         6.89366268091479   -1.26833149685204   -2.91926654819493
N         6.45737627812369   -0.78053290676001   -4.09352688880739
N         8.21800254221024   -1.43217727537109   -2.71006375511339
C         8.48912232585068   -1.68848064177911   -1.45167858373854
S         7.12432039465415   -1.75432283841280   -0.41746574767586
H         2.90930994259497    2.05896950060233    2.38963393533985
H         2.20664466807218    0.41539423160146    2.44506543343394
H         1.57735066490239    1.49105251493587    1.21051771889476
H         4.44390218094812    0.52112122994607    1.37848408784220
H         4.68345989985777    2.61610792394057    0.48840124210940
H         2.99129896793259    2.70150822778905   -0.04381437874740
H         5.46720804930666    2.44873659587539   -1.57714651218070
H         3.77596820377285    2.38729794829917   -2.31800840986916
H         5.03491050229851    0.37453359127690   -0.67847155191351
H         1.97628479968350   -0.60656481579706    0.22557084923708
H         3.22347704855523   -2.38634369747463   -0.50985852082237
H         4.55353249880683   -1.77829951033308    0.50197719045313
H         5.46165878182620   -0.81420263563335   -4.29524409334475
H         7.10601449393905   -0.64295654568568   -4.86334715504245
H         9.46642460928237   -1.87697241696597   -1.02771814283809
