32
 energy: -49.228006704971 gnorm: 0.278334314943 xtb: 6.4.1 (79825abcba525fcdf90b791dcacef51065a7a4e7)
C         2.15430762099581    0.95743701219584    1.78570103722833
C         3.33465140308778    0.69664034880744    0.81308090187453
C         3.66408890326833    2.09617802178426    0.19849771481236
C         4.62393904931828    2.23307414093553   -1.05420844558378
C         4.47371047115415    0.62755896381513   -1.32947241369865
O         3.01217175148685    0.48501833330660   -1.38150667728656
C         2.97607107961962   -0.37352074882621   -0.20831441395469
C         3.99478655284068   -1.48132087354003   -0.56823118751285
C         4.80038040851368   -0.96662148438559   -1.79966168686300
C         3.96689325986677   -1.20478598048723   -3.04824771989970
N         3.20228536361448   -1.42900256714850   -4.02556129574259
C         6.24157973921132   -1.25161141679845   -1.89911809912541
C         6.92991118255878   -1.89083647084768   -2.91332801519726
N         6.29493618728872   -2.54741254879447   -3.89968254127524
N         8.27346654226394   -1.95350081933960   -2.78915278758036
C         8.63824657199672   -1.55577080524515   -1.59270932505664
S         7.36692566107366   -0.93524679067826   -0.62559568913233
H         2.53726567583360    1.36858165756933    2.72824082170131
H         1.68714282067473   -0.00001425390138    2.04983074424666
H         1.41926811154788    1.57380985408279    1.24997865133312
H         4.16502464158309    0.46499524864794    1.48014749274329
H         3.99982196058351    2.71472253568057    1.03648489143026
H         2.69956242084067    2.55411651734516   -0.08687446879092
H         5.67314596380631    2.51796480896729   -0.90679621473364
H         4.17729416259499    2.90429628654012   -1.80535671671117
H         4.95538942710824    0.37808804798438   -0.36315727991624
H         1.98159846927368   -0.82320689636840   -0.08636895492118
H         3.48015092379361   -2.38197563949434   -0.91766214264674
H         4.63036121085051   -1.82295615792599    0.25827822229983
H         5.32710427069795   -2.30847160234916   -4.09839192998141
H         6.75885992708707   -2.84417147274766   -4.75349220316073
H         9.68948361040760   -1.47839769076215   -1.34918222400464
