32
 energy: -49.229888910900 gnorm: 0.279157736757 xtb: 6.4.1 (79825abcba525fcdf90b791dcacef51065a7a4e7)
C         2.34697442449617    1.04888219408043    1.88579909325027
C         3.44155260561782    0.82077964612317    0.81012065446714
C         3.62285346163548    2.17425911864890    0.04843136501853
C         4.31974828023930    2.20210347762017   -1.37385126316347
C         4.36846870137877    0.57431615643856   -1.52861761608873
O         2.93189362300399    0.29435563719935   -1.39825282428160
C         3.09532755395867   -0.34670035341953   -0.10322028861354
C         4.04579802024881   -1.51410718331342   -0.46142358923355
C         4.80741995861983   -1.04806568981943   -1.73933413280713
C         3.90393712490121   -1.37860915210250   -2.91613065389927
N         3.34245547263819   -1.73533500693980   -3.98735666696805
C         6.24878346565377   -1.33112427256721   -1.84187897253079
C         7.00747646676183   -1.55070376991278   -2.97642750815121
N         6.45616130432221   -1.48765408870680   -4.20086900167346
N         8.30086726300753   -1.84529761567693   -2.72178652863272
C         8.58362532399037   -1.83957530806931   -1.44009010377213
S         7.24352787364402   -1.47663432814846   -0.43558606442860
H         2.64407893416605    1.76954514532453    2.65810205017253
H         2.12341791512852    0.07354609698594    2.33686711969554
H         1.43029880726585    1.43147330733475    1.41619618859974
H         4.35753793890111    0.59756809152485    1.35720791945856
H         4.08910032879043    2.89199221948023    0.73034746194558
H         2.63027887121426    2.63401197362762   -0.10930030073801
H         5.27137815766460    2.74520652787928   -1.43013499474273
H         3.57577083775925    2.57386581217987   -2.09672392502478
H         4.85891365210496    0.58627978423137   -0.53496983294881
H         2.09592679998668   -0.69910196919862    0.18500763088022
H         3.43309971903783   -2.39793104736888   -0.66535249827275
H         4.84082211848385   -1.79498459339764    0.24059648831749
H         5.44457447159470   -1.44175835230829   -4.28953960465584
H         6.99321359361616   -1.78043450823864   -5.01212512589272
H         9.57182644757157   -2.06145321810602   -1.05980062129021
