32
 energy: -49.225355636563 gnorm: 0.286023377093 xtb: 6.4.1 (79825abcba525fcdf90b791dcacef51065a7a4e7)
C         2.46622483281661    1.16872486646806    1.95464038836032
C         3.49013697615603    0.86951057435290    0.82801223460523
C         3.70686246589846    2.20644455846735    0.04661295508204
C         4.23144879016130    2.13592173680012   -1.44642464723530
C         4.32171713039678    0.50626632602569   -1.55639150487442
O         2.88931950639639    0.25132386624965   -1.35057066911033
C         3.06062384003395   -0.31717954120495   -0.02308002856944
C         3.97396111621230   -1.48941616474475   -0.45461070222653
C         4.72450381266199   -1.12490025651879   -1.77147508259601
C         3.96436730169610   -1.61636612954049   -2.99255820969338
N         3.37078467331270   -2.06428514934895   -4.01092373652294
C         6.17554959544130   -1.35921060656827   -1.85940195125550
C         6.98817246381497   -1.45596510469242   -2.97354432426041
N         6.63951801282426   -1.06223700794590   -4.21071807707067
N         8.25991122257346   -1.82147903639134   -2.70231120148077
C         8.52000132431537   -1.78211450493398   -1.41641300795137
S         7.12794588327367   -1.59094908941970   -0.43546798950721
H         2.72854576138260    2.09301895751076    2.48468397083775
H         2.42412637359468    0.39659749572153    2.73359316080885
H         1.49342260088561    1.09401245647533    1.44939697350160
H         4.40644148111680    0.57031794302252    1.33695901509675
H         4.37297733500507    2.87330837832215    0.60259868638494
H         2.73314957391973    2.72779313299223    0.00743197584646
H         5.15201673574808    2.71553164980648   -1.58902620765841
H         3.49264322544111    2.58037660883713   -2.13263215903702
H         4.90283638827803    0.48868838604989   -0.61298983063021
H         2.02742556304789   -0.59401699022012    0.22577021124167
H         3.33924351681467   -2.34692989851378   -0.69942613114071
H         4.74960948722089   -1.89448494207812    0.20726278152218
H         5.67406256441824   -1.23477517047668   -4.47793180443577
H         7.34345311406587   -1.49204535759390   -4.80403266294181
H         9.52490152594220   -1.97287344753135   -1.06402406262526
