32
 energy: -49.224035707254 gnorm: 0.291992047463 xtb: 6.4.1 (79825abcba525fcdf90b791dcacef51065a7a4e7)
C         2.62794925132534    1.12761237797446    1.97364486949164
C         3.46817584671156    0.87010721084817    0.69500237565060
C         3.59620767069118    2.15211061819517   -0.19101250743609
C         4.38303684616849    2.12526048682933   -1.56560499027926
C         4.39135689502835    0.48973600557653   -1.53385121147973
O         2.96552522632331    0.15043369600874   -1.42897593047728
C         3.02716188418829   -0.36860036861443   -0.07192867096926
C         4.00196260453178   -1.52680387362540   -0.39266315702004
C         4.74409190364006   -1.15729821284328   -1.71290088720655
C         3.84454746498909   -1.66064664503187   -2.82997312576372
N         3.16865643368797   -2.08156128376991   -3.80774728902024
C         6.18461357166591   -1.44532811854227   -1.81341177750650
C         6.94792330811764   -1.25790773105078   -2.95062874319263
N         6.58025641733070   -0.86881067834770   -4.18375694645231
N         8.25405151212931   -1.41896389663943   -2.64636349541351
C         8.48668618128179   -1.75305574855921   -1.39856770411212
S         7.10204644048465   -1.79105466545395   -0.38963531346290
H         3.25682192379586    1.73663155633648    2.63522845348838
H         2.25685944638458    0.23291535336620    2.48991027602568
H         1.71454452625013    1.69068769473257    1.73735049633545
H         4.46640836233007    0.67602640163356    1.08745809154171
H         4.02556464135041    2.97104152999253    0.39425774026837
H         2.56764180739736    2.38530433762646   -0.52135965554196
H         5.42067004929728    2.46106678363090   -1.44610739359950
H         3.78500227584027    2.53678408451706   -2.39461496036078
H         4.99659233656519    0.45476566859004   -0.60622929000191
H         1.97948878051066   -0.63432869774999    0.12257999286753
H         3.38094776855673   -2.42136898082871   -0.50322838228189
H         4.65172887081565   -1.71968262042880    0.47011677146213
H         5.66369057936986   -1.12760836608084   -4.53901408293589
H         7.29352374675830   -0.99268284246542   -4.89662961175875
H         9.50334844766922   -1.82371720085369   -1.03553030345084
