32
 energy: -49.225907873436 gnorm: 0.287481532511 xtb: 6.4.1 (79825abcba525fcdf90b791dcacef51065a7a4e7)
C         2.55191717259824    1.06258360121886    2.01465134684540
C         3.50034998541905    0.75686750647832    0.82543768291974
C         3.92904953771387    2.10330507977116    0.15590813881555
C         4.51849576737875    2.11379055927092   -1.31438733038279
C         4.37701454029494    0.49763918031068   -1.52428170735916
O         2.91245807067789    0.45139891699021   -1.41447727863706
C         2.94949033433836   -0.27098187009389   -0.15290393196115
C         3.82375934696647   -1.50142139889832   -0.49380666011174
C         4.61122833706970   -1.15802602513738   -1.79468720650649
C         3.87944671208548   -1.64847370916543   -3.03337480438765
N         3.37450867864567   -1.81925729128458   -4.17613930028195
C         6.05745506241691   -1.41687156674912   -1.89263415246711
C         6.90077761205420   -1.69608457747569   -2.95182146049581
N         6.67332769814911   -1.74958272643445   -4.27567383535118
N         8.21988874902703   -1.64651287256251   -2.66550735245039
C         8.37866174578989   -1.41055677767878   -1.38416178969017
S         6.96324484565423   -1.28878845322614   -0.42583868543380
H         2.91973402736624    1.95968443996404    2.52845956278572
H         2.65487020147816    0.19860352865247    2.68372495088486
H         1.52542086632168    1.27550427395046    1.68576359208033
H         4.42633835658773    0.40194233702340    1.27790941087358
H         4.72304687795170    2.49574982690339    0.79863035949876
H         3.06322946296800    2.78857939325012    0.20292936757010
H         5.57832911902580    2.38854654620683   -1.38503167833703
H         3.92642692923210    2.58144920341578   -2.11750901353056
H         4.89568732188373    0.31902950556770   -0.56142531778236
H         1.91676990974574   -0.53254561680774    0.11381132353006
H         3.20316419382134   -2.38292335005028   -0.68340305659726
H         4.53098201161453   -1.78323630075440    0.29625921263649
H         5.83098321360288   -1.84420928528091   -4.83672498155356
H         7.47627070090709   -1.96127402299801   -4.86112354418477
H         9.36820423120551   -1.25598274576911   -0.97513379795978
