32
 energy: -49.229712057236 gnorm: 0.278122467120 xtb: 6.4.1 (79825abcba525fcdf90b791dcacef51065a7a4e7)
C         2.35994888626367    0.99738745835108    1.88751069728330
C         3.50361009663403    0.90421015450124    0.84320552371004
C         3.53504810677857    2.24793774637207    0.04423426983219
C         4.19275308232558    2.29850882838783   -1.39597137531485
C         4.34656637487163    0.67172067364219   -1.47291044603929
O         2.92562679296300    0.32234518718020   -1.33878997473274
C         3.14820330385110   -0.28591545615086   -0.03677177742074
C         4.12478005523929   -1.40267934462189   -0.47686116897793
C         4.82874859637022   -0.92233620827911   -1.78224109511254
C         4.07948824640056   -1.36488377347709   -3.02849581021026
N         3.39419371161670   -1.84851713266324   -3.97004257560385
C         6.28039378358553   -1.15484703345193   -1.86489290622778
C         6.95565290579178   -1.61551157267585   -2.97972199533651
N         6.58343762004165   -1.52596021396752   -4.26837127710660
N         8.18095650745355   -2.11833738570789   -2.71460956690731
C         8.47913044634201   -2.02542047383180   -1.43978042460420
S         7.20326001713240   -1.47271429197489   -0.43813866162150
H         2.63640581116867    1.68800662772705    2.69416723370226
H         2.28393045020902    0.00786862380611    2.35633268155816
H         1.44042569487416    1.27493947509288    1.35399498653598
H         4.43592418038111    0.78712578833742    1.39568964341890
H         3.96548920103693    3.03786984166851    0.66734281351844
H         2.49940165069247    2.60414230834172   -0.10412681344133
H         5.16359468628482    2.80955489912348   -1.39080439133517
H         3.54251657036395    2.75264782085883   -2.16095817252819
H         5.01702540405269    0.64277007758547   -0.59105907220200
H         2.20851640576961   -0.71120187644084    0.34030128039086
H         3.48747845491376   -2.27637803897426   -0.64605953440476
H         4.76375899453750   -1.79063287589592    0.32624877699476
H         5.60228521073290   -1.30827633910943   -4.42078681313091
H         6.91205802557176   -2.24757560617580   -4.90363648885424
H         9.41513778186573   -2.41144271274482   -1.05863943023945
