32
 energy: -49.226840867251 gnorm: 0.278442332797 xtb: 6.4.1 (79825abcba525fcdf90b791dcacef51065a7a4e7)
C         1.98067120764812    0.81503815557897    1.89338380556264
C         3.15692620075281    0.78457284097068    0.88209140147848
C         3.41528048174548    2.14705001511949    0.15969519890241
C         4.49069001774357    2.29983700214323   -0.99333387156767
C         4.61640866259171    0.69471040878232   -1.28278389068590
O         3.16406876791739    0.53018208359543   -1.43364838705482
C         2.98755868362086   -0.25150436026132   -0.22014799770406
C         4.05914440403645   -1.34092190179411   -0.46390172882369
C         4.88908917342442   -0.92030182706209   -1.71473682460582
C         4.02837867306620   -1.16785614017565   -2.94285919835467
N         3.23882761650276   -1.60648059644660   -3.82277843962049
C         6.30717938915654   -1.26580312315878   -1.90919855755848
C         6.87171530128862   -1.95712096885539   -2.96485448993642
N         6.35130789824897   -2.39269125159581   -4.12530065695211
N         8.20681775896477   -2.14325447617926   -2.87916279607345
C         8.68736759100587   -1.76121141943375   -1.71905695794186
S         7.52080669346958   -1.02573296547818   -0.70179454700589
H         2.16660304229954    1.58006780297993    2.65773779937016
H         1.92669962831449   -0.15142325452582    2.41083891573096
H         1.07501524960523    1.11241145895402    1.34698336685245
H         4.01986684161151    0.56358180591462    1.51030586920970
H         3.54176093824507    2.84702374160551    0.99130567573611
H         2.45992735191837    2.38060053098659   -0.34449805546529
H         5.46837214299703    2.72326637167405   -0.73146856210655
H         4.10906293932754    2.85983477275197   -1.86225148692163
H         4.99617350711682    0.54183077211464   -0.25301606670802
H         1.98349904262653   -0.69558832364938   -0.19335677042667
H         3.56659693554095   -2.29233849411764   -0.68825477707935
H         4.73483837169296   -1.50211597649198    0.38535780412055
H         5.38428844213867   -2.11960978753224   -4.27884772680539
H         7.01662541389969   -2.44143880696740   -4.89162847028576
H         9.72436193990265   -1.87058623724653   -1.43083616002749
