32
 energy: -49.224671044327 gnorm: 0.277663689588 xtb: 6.4.1 (79825abcba525fcdf90b791dcacef51065a7a4e7)
C         2.25792801912037    1.09825886827212    1.92319476402074
C         3.34354489952605    0.76651074676922    0.86555803929731
C         3.60563376382824    2.11468511021973    0.11810732707428
C         4.45118444452701    2.17380790960882   -1.22012811903124
C         4.48690967699175    0.54738910277605   -1.39189375613062
O         3.02730878812186    0.38105275240964   -1.35998301243337
C         3.00824107334467   -0.35590339682517   -0.10646605753131
C         3.98758342750587   -1.50490675589929   -0.44591008089828
C         4.76654811417756   -1.08856485326914   -1.73050784974369
C         3.90827373692321   -1.34384847769598   -2.95875278247135
N         3.49661138148349   -1.77474611242839   -4.07001399425102
C         6.18708307976792   -1.44449384758803   -1.88400482101117
C         6.91410836686362   -1.61015322163244   -3.04805885689686
N         6.46868719860539   -1.73990303198714   -4.30978212516320
N         8.22868041664617   -1.81038287612317   -2.81079165388155
C         8.56964635814054   -1.68085344333657   -1.54996060105810
S         7.24990201308387   -1.28886494074320   -0.52955108831337
H         2.54935370603694    1.92403523256069    2.58443791224284
H         2.08718735374516    0.25868828848937    2.60926272406604
H         1.29163363093115    1.26431447577276    1.42731400683830
H         4.18973696626464    0.38139846251655    1.43459627879788
H         4.01609668376969    2.83246001223210    0.83494474903578
H         2.64220889906855    2.62621833522402   -0.05966379524957
H         5.43656138713280    2.64370812629121   -1.11079252284439
H         3.94921631349086    2.71189431868245   -2.04033879957789
H         5.04173791349027    0.50594739134200   -0.43352874031295
H         2.02294949655752   -0.78973862232743    0.11044775715415
H         3.42413918535104   -2.41716393958130   -0.66601970130267
H         4.66712808849645   -1.72933589456817    0.38573782125189
H         5.48168169131701   -1.96797106521522   -4.39393625199303
H         7.17580189023526   -2.21597443197414   -4.86261742972242
H         9.53783250714813   -1.43463266380481   -1.13477116686597
