32
 energy: -49.228725510341 gnorm: 0.288367129417 xtb: 6.4.1 (79825abcba525fcdf90b791dcacef51065a7a4e7)
C         2.25115375070237    1.37817047090232    1.74027532829393
C         3.40879640774972    1.10341726350891    0.74448899360767
C         3.44577425093328    2.27125183537125   -0.29461750125193
C         4.16199864692258    2.08188013195221   -1.69479125524988
C         4.31267012170390    0.45861396016175   -1.55942913863859
O         2.90140050535211    0.12731339048475   -1.31926496603750
C         3.10908332763903   -0.23034032577073    0.07491018951597
C         4.16192451561562   -1.35226723912049   -0.09046165336973
C         4.83190060460175   -1.15193826045176   -1.48377365299850
C         4.10953055908749   -1.78724036020717   -2.66061817345552
N         3.59577590864634   -2.44688979519974   -3.60452438423138
C         6.26048185145997   -1.40621472469470   -1.73410436829503
C         7.01293943691732   -0.99690087979195   -2.81913909661096
N         6.65684306567870   -0.05081956727182   -3.70531411497622
N         8.25693252815048   -1.52302615224347   -2.83181593676330
C         8.45761485529238   -2.39929921643015   -1.87546730171067
S         7.18725597452618   -2.46229424620732   -0.72706160820883
H         2.38466888721823    2.37452546751941    2.18019403138386
H         2.18237899997769    0.54878238130324    2.45589101438806
H         1.29398724080177    1.35899407849663    1.20114494186880
H         4.30835089371640    1.06582607093708    1.35893641387336
H         3.94326154677178    3.10905830355963    0.20350218424953
H         2.39222248640637    2.58142075208348   -0.41823062849071
H         5.15324982139777    2.55130699584392   -1.66672461234065
H         3.57834145271313    2.30357110356434   -2.60278461656448
H         4.93068866413078    0.67335685339986   -0.66502773750942
H         2.14890598417103   -0.55510444744454    0.49758244021346
H         3.67536325175023   -2.32880472378777   -0.00235091298783
H         4.97752270275036   -1.22424535733185    0.63217076768002
H         5.69563425887183    0.02389240352915   -4.02745160896663
H         7.28353412527332   -0.02557340946355   -4.50462818697994
H         9.35427026365374   -2.90143438895944   -1.53744259175317
