32
 energy: -49.232823365505 gnorm: 0.278712146084 xtb: 6.4.1 (79825abcba525fcdf90b791dcacef51065a7a4e7)
C         2.37719196657899    0.75701370538043    2.01798054282781
C         3.38975397698263    0.67853851195117    0.84504572328410
C         3.57453946148627    2.12057582846826    0.26943304074084
C         4.25963458426944    2.36701097727486   -1.13742159326622
C         4.43300409827568    0.76536017534466   -1.42145604905364
O         2.98987031087588    0.49094046222236   -1.38711185811774
C         2.98702937117844   -0.35096540706863   -0.20138037996338
C         4.06588731316709   -1.36801232432045   -0.64435162937122
C         4.81810395814384   -0.81533009521134   -1.89296305198332
C         4.06372022981609   -1.21113833435884   -3.15178443570557
N         3.37505456492135   -1.49156273823307   -4.17018607563225
C         6.23834329580999   -1.20015677119455   -1.94768986198113
C         6.88205944467596   -1.94788841150781   -2.91596540232353
N         6.41706517120552   -2.44823961255927   -4.07381238962572
N         8.13050819873834   -2.33145754880085   -2.57138196072418
C         8.48898263066562   -1.81799821989164   -1.41787158167552
S         7.32187862687598   -0.82177334255841   -0.65496927058869
H         2.65283788598926    1.56607994692914    2.70610057630584
H         2.46583240802549   -0.19810755469013    2.55146590407328
H         1.35062504076751    0.89430113547866    1.65122511517983
H         4.27169490331191    0.29995598263512    1.36177822285425
H         4.07080182101993    2.78362131846847    0.98471680084467
H         2.52210243200017    2.43314638863808    0.14242033319410
H         5.23306598169298    2.87084077289365   -1.08930655303313
H         3.62719333320079    2.90133661296878   -1.86458644880885
H         4.93049883611818    0.50449962354585   -0.46622515980374
H         2.00567690381341   -0.83286162958409   -0.09751766087458
H         3.59635704845763   -2.32503300390546   -0.89291466338556
H         4.76545198270430   -1.55798851351069    0.17924168292250
H         5.56757366365580   -2.03228154148262   -4.44612929634929
H         7.20370927580608   -2.61958744367613   -4.69358090621354
H         9.49785540796300   -1.88058800436197   -1.03232055012602
