32
 energy: -49.226000866224 gnorm: 0.283091492888 xtb: 6.4.1 (79825abcba525fcdf90b791dcacef51065a7a4e7)
C         2.75296988424877    0.99777723750905    2.01107127595256
C         3.64480092477803    0.75159909535489    0.76557940973128
C         3.84294068641708    2.16354582333662    0.12363367262960
C         4.32588308703464    2.15146016051703   -1.38499025155668
C         4.36828691884165    0.52045554663963   -1.50349646743891
O         2.90998057925226    0.42340978532825   -1.35168879450461
C         3.05288181384843   -0.33600221488324   -0.11976129939770
C         3.84388821923723   -1.57167729740657   -0.61165394705764
C         4.61978041223004   -1.11109992892090   -1.88294376215490
C         3.90486482205763   -1.56005266060467   -3.14695617202236
N         3.27051006249087   -1.84973037306923   -4.19753743796731
C         6.06712650081877   -1.38187114366246   -1.87672974669561
C         6.93247096337954   -1.58117765145040   -2.93620436843044
N         6.68892143046736   -1.62730348218710   -4.25746765343083
N         8.23545074870789   -1.57036701709584   -2.58037557769493
C         8.37584469401201   -1.50808767928185   -1.27686438934344
S         6.92598134410100   -1.35196025303866   -0.37678873066641
H         3.14764819267559    1.83639087728952    2.59846742216442
H         2.77373195592359    0.17723590856807    2.73976959724765
H         1.70790923087031    1.18430415221834    1.72778171374580
H         4.62296925404339    0.46313062356672    1.15045557832495
H         4.54881192244372    2.68424578606702    0.77796833892715
H         2.89770039301218    2.73247230671447    0.05806136475785
H         5.28924253478642    2.63818821786553   -1.58187239267066
H         3.55450793572325    2.51776654663957   -2.08144883637027
H         4.97224376405064    0.24028304350421   -0.61763260008932
H         2.08725247541460   -0.69961026514711    0.25628825399100
H         3.11700990993532   -2.31958264946201   -0.94394348929877
H         4.44008698829666   -1.92705329060459    0.23807692171807
H         5.83271849382742   -2.05631681993001   -4.59826216777051
H         7.52208665605854   -1.72071781017278   -4.83139404782629
H         9.32627074549673   -1.38115703726964   -0.77589503699374
