32
 energy: -49.231328649366 gnorm: 0.278922005754 xtb: 6.4.1 (79825abcba525fcdf90b791dcacef51065a7a4e7)
C         2.24896577486454    1.22668137137368    1.84878952559143
C         3.37781316314256    0.91316449428981    0.83162335798249
C         3.64264976797854    2.23737780169445    0.04341783526611
C         4.52009854517423    2.22182266167304   -1.27535706985423
C         4.44795726579024    0.59176533863868   -1.39251766175446
O         2.98558210411548    0.44970242271667   -1.41246352725086
C         2.99595597376131   -0.21334740408475   -0.11823402265359
C         3.94803604515515   -1.40082411484846   -0.39749199245838
C         4.75678842531388   -1.04823006121736   -1.68276045464410
C         4.08557427926904   -1.77288481391242   -2.83806877063317
N         3.44724452424354   -2.30609940383128   -3.78583322861254
C         6.18336047157568   -1.37151299710298   -1.85171816488822
C         6.92093727848095   -1.44434641397143   -3.01863990669278
N         6.53080285053091   -1.10575766992539   -4.25974160751267
N         8.21646248539562   -1.78342318657920   -2.84220663744615
C         8.51497281927123   -1.94436493573353   -1.57424767609082
S         7.19524192464211   -1.74206791707079   -0.50000283485255
H         2.45457120195487    2.16181340151617    2.38482360191417
H         2.13723905074863    0.40643152940466    2.56950286346881
H         1.32678347068650    1.42025871096658    1.28371904612876
H         4.28549963449268    0.64007867788395    1.36984859957297
H         4.02360965731082    2.84377622030620    0.87087600893142
H         2.66262211675404    2.63003042176582   -0.28342464347335
H         5.56119634495492    2.54379470297082   -1.14816595243833
H         4.07817217580179    2.77914197844944   -2.11699286367321
H         4.97114662297952    0.40526909803956   -0.43360820608748
H         1.98790640190407   -0.55659514597016    0.15024530018216
H         3.33226082194701   -2.26607965537028   -0.66260433985803
H         4.54633123651891   -1.70227729557127    0.47139031304891
H         5.56485623578487   -1.13696097785902   -4.57478177085740
H         7.16486914602953   -1.48770990500345   -4.95569739821224
H         9.54971485322197   -2.15408401250365   -1.33820066508260
