32
 energy: -49.229042016497 gnorm: 0.284025306145 xtb: 6.4.1 (79825abcba525fcdf90b791dcacef51065a7a4e7)
C         2.63616314251934    1.18680939919838    2.02139101308834
C         3.53415241571057    0.86760736796265    0.79707830933015
C         3.69294728176345    2.17080842036588   -0.05227347938877
C         4.41222934947512    2.12322266131967   -1.46283878053836
C         4.34895532565975    0.49177840832902   -1.56483827116939
O         2.89653816961687    0.39117246589347   -1.36613328189775
C         3.02481098725266   -0.26968774224378   -0.07710939948176
C         3.86243527134143   -1.50574375316241   -0.48342640088263
C         4.66922684548259   -1.15866116443465   -1.77142446655802
C         3.97431616121814   -1.61562708744512   -3.04369469004905
N         3.43871398530924   -2.18347632068359   -4.03400660829871
C         6.10676865204783   -1.46250165274151   -1.86796907764046
C         6.97972670332382   -1.43371344178800   -2.93948485835960
N         6.63739741321658   -1.07894170560333   -4.19013601114392
N         8.27841263516106   -1.68341406152825   -2.66461805453371
C         8.43216511840934   -1.74850940117259   -1.36275271464221
S         7.01527853589493   -1.62730694029709   -0.40653199079683
H         3.22840431873073    1.90637463314627    2.60066150225337
H         2.61305545676912    0.27352286693922    2.62974463083860
H         1.59229783789040    1.50492933654109    1.89355531671823
H         4.47062780350684    0.58020713237784    1.27517030376904
H         4.12194242352069    2.97954831162377    0.54725922516532
H         2.63209858950182    2.42821294514450   -0.22489805893307
H         5.40989044742328    2.56243573235461   -1.58730730667108
H         3.76421676826689    2.67724779665612   -2.16097228458154
H         4.87563916951853    0.36419455636511   -0.59822470559628
H         2.04342737107613   -0.61989209183804    0.26974389559866
H         3.14472137503575   -2.26589704203167   -0.80774811086925
H         4.58675813543197   -1.81914415904932    0.27875743069328
H         5.66750181829585   -1.09471188372348   -4.49399559944892
H         7.25298293390509   -1.46900386372611   -4.89808234864454
H         9.38923623811562   -1.99096377460278   -0.92046083441614
