32
 energy: -49.227845683598 gnorm: 0.278971866935 xtb: 6.4.1 (79825abcba525fcdf90b791dcacef51065a7a4e7)
C         2.70567545985802    0.97061089535854    2.10272472580094
C         3.55476144217167    0.83249510110809    0.81152633217961
C         3.63774825970102    2.15771365005920   -0.01421953763134
C         4.42166230328622    2.14107291431879   -1.39063787030980
C         4.30779578300242    0.52269603987283   -1.60018156698833
O         2.86062902906566    0.36497302624311   -1.40029995227017
C         2.98375474754785   -0.25318209046601   -0.08976685113719
C         3.87014114031895   -1.45455821712703   -0.49665378206058
C         4.64667442408887   -1.12394645704426   -1.80738255407567
C         4.00372217854470   -1.62187397429567   -3.09154408390250
N         3.41274082403749   -2.05675616458242   -4.11704818318168
C         6.10042296810731   -1.35075885843163   -1.86515513733276
C         6.92049391449866   -1.51470905869764   -2.96589787404555
N         6.68203974987981   -1.35733535635624   -4.27950122577943
N         8.21252830853884   -1.75862552354943   -2.65664198953432
C         8.41964872630394   -1.70360338185651   -1.36172720847648
S         7.03326194923896   -1.37395643627504   -0.40994976956085
H         3.20425226721989    1.72854397504170    2.72000638783012
H         2.55718272077292   -0.03268505585000    2.52232872989774
H         1.71850331559990    1.38393148244566    1.85401950893933
H         4.54272027659331    0.56343092188312    1.18528937528873
H         4.09790374115729    2.89521533116741    0.65052455713824
H         2.59471996987785    2.48080236087518   -0.18498825312704
H         5.42863796138778    2.47816594756967   -1.11478189988205
H         4.08364481190484    2.87571936785349   -2.13916529509286
H         4.88215644782374    0.52240628875683   -0.65248697571587
H         2.01469169323004   -0.61739102267500    0.27674747015172
H         3.26891973635442   -2.35507211906521   -0.65708558386666
H         4.57193776888205   -1.77574595443689    0.28315872633681
H         5.70468356805825   -1.23359298053134   -4.52997983668520
H         7.19119298034382   -2.02755815119327   -4.84857629138662
H         9.40091808332142   -1.86915200435890   -0.93735065197005
