32
 energy: -49.234384219400 gnorm: 0.274060692663 xtb: 6.4.1 (79825abcba525fcdf90b791dcacef51065a7a4e7)
C         2.27321821917488    1.31294868378060    1.75158899385202
C         3.41953120390887    1.05760571662692    0.73769413766997
C         3.52946920814364    2.26454303826928   -0.25031557418502
C         4.33374871569097    2.11546627001650   -1.60686861672785
C         4.44994179630121    0.48572214175596   -1.52654993132086
O         3.01580917573203    0.19605179417696   -1.39062514205477
C         3.09606310715328   -0.23217032644663   -0.00319664952071
C         4.09108157233905   -1.40175483925296   -0.19438433290259
C         4.77583600162885   -1.17575206026318   -1.57653920742868
C         4.01956890380171   -1.82809382721378   -2.72235792129985
N         3.45439513877700   -2.33504454577381   -3.72914475002321
C         6.21350040108257   -1.46849292872691   -1.70139997924970
C         6.94495140641558   -1.03756629416084   -2.79241430955265
N         6.46249522885394   -0.30956830875585   -3.81439063721479
N         8.25166183406926   -1.37919476565811   -2.77552752423514
C         8.52959054595106   -2.12101520679835   -1.72901490679655
S         7.22574512777649   -2.39691078042093   -0.65175706601492
H         2.23467923919178    2.35422994035971    2.09557464429072
H         2.45124851119162    0.64476409388912    2.60397092019181
H         1.24283069544435    1.15689208703096    1.40353019983194
H         4.32078591071599    0.99175460285441    1.34725183528966
H         3.94808151379174    3.09791034950230    0.32222190917090
H         2.49350930857859    2.56185217227352   -0.49495949385740
H         5.33217976387166    2.57026783924900   -1.60248925724823
H         3.73491590476784    2.54460162922810   -2.42631761036258
H         4.92868071014361    0.52867713160489   -0.52806146615188
H         2.10883135921828   -0.61222025466155    0.29176033917319
H         3.58284075340585   -2.36848087769268   -0.12183876812745
H         4.82425592457013   -1.38939341884359    0.62175914778599
H         5.49406662375647   -0.55608412520312   -4.00054328603024
H         7.11389909314612   -0.09824521207032   -4.56492217654074
H         9.46118205652841   -2.66619580838602   -1.65616761064100
