32
 energy: -49.228810124244 gnorm: 0.286367518600 xtb: 6.4.1 (79825abcba525fcdf90b791dcacef51065a7a4e7)
C         2.16331203315074    0.75636615974188    1.96003698476820
C         3.34823057919549    0.66931550740417    0.96223615615241
C         3.59055994298191    2.10070319002986    0.38141515312515
C         4.31494075752252    2.31567178078606   -1.01084434490130
C         4.41328195076520    0.71608011964530   -1.33895008702192
O         2.97271837000700    0.42780330120993   -1.36712588340070
C         3.02247587222718   -0.33775994663276   -0.13172724073693
C         4.04406539168121   -1.39766023702969   -0.60870590134221
C         4.80441517110306   -0.84936250006237   -1.85432053155488
C         3.98674930158291   -1.13526477592716   -3.10334921898533
N         3.57715217439323   -1.39817361094457   -4.26659866923480
C         6.22988192174288   -1.17370687498434   -2.03042171404621
C         6.85756459090724   -2.02736574167228   -2.91829084878040
N         6.38211541873554   -2.70952444994459   -3.97459961913225
N         8.17221465563126   -2.23928858753723   -2.69185933683785
C         8.59523610748950   -1.61795139466117   -1.61588371615342
S         7.36221498655101   -0.75954947423028   -0.79161388514948
H         2.36153105669753    1.61012948904309    2.62024561292233
H         2.00883897428989   -0.16840760957811    2.53069619045319
H         1.19423535962391    0.94275971061838    1.47697914138627
H         4.25755283685954    0.47489416784053    1.53099830167308
H         4.20694694580637    2.70288219452402    1.05594018469096
H         2.62256071628034    2.58847840720447    0.16575542544115
H         5.30364485607372    2.74775527111271   -0.81210766376176
H         3.82636279274544    2.95626884550707   -1.76262989786292
H         4.91126670578935    0.58395232437223   -0.35784422183888
H         2.03028053310006   -0.79108627268723   -0.00481093309375
H         3.53073295747474   -2.32134321300628   -0.89406602950208
H         4.75947033198188   -1.65763164472004    0.18148284849148
H         5.67035156258154   -2.26166944692573   -4.54564683587006
H         7.15783698819154   -3.08497169644121   -4.51272362985448
H         9.55675237757835   -1.62204527046654   -1.12003993000091
