32
 energy: -49.230033318977 gnorm: 0.282637888573 xtb: 6.4.1 (79825abcba525fcdf90b791dcacef51065a7a4e7)
C         2.42643051217565    1.30033650570227    1.78572760029718
C         3.54388346404872    0.95678148832591    0.76568587478499
C         3.70203878619619    2.25469507593992   -0.09184224150435
C         4.35897078348333    2.14117255134116   -1.52881077183598
C         4.31039078812647    0.50604810475593   -1.53389738068151
O         2.86082757930821    0.31727465968940   -1.38472663650248
C         3.06392677002986   -0.23273195114932   -0.05393133033470
C         3.99184623972365   -1.43906498508145   -0.33369638011339
C         4.69990160877984   -1.13512697726983   -1.68890753382974
C         3.98978074161627   -1.81074727656975   -2.85065440568029
N         3.58313389389443   -2.56372040776120   -3.77678071471687
C         6.15146839937821   -1.34712327372175   -1.81609941800644
C         6.99176314058768   -1.11264522582604   -2.88845914747971
N         6.53987112038995   -0.52323920538032   -4.00898348225218
N         8.27444193158597   -1.50519767670960   -2.72995046520844
C         8.45076661178916   -2.07420665504073   -1.56039115489626
S         7.07248327845476   -2.06618142431909   -0.54211499166406
H         2.85074473431779    1.99229688241717    2.52412201695072
H         2.17250107169947    0.36778765538755    2.30591301038163
H         1.56876024514462    1.73139504718284    1.25113683887801
H         4.41570275049115    0.75342852700575    1.38756665804642
H         4.29481636702413    2.92530377197272    0.53778878156272
H         2.65106527843786    2.58429984745494   -0.18279093002562
H         5.40927790469847    2.45412068816249   -1.47736544777636
H         3.78352666222838    2.60945876738593   -2.34356633563455
H         4.97620777132309    0.47720164772799   -0.64853252886730
H         2.08867042475890   -0.52047391873042    0.36097072940549
H         3.37715940901763   -2.34437603460403   -0.36020730205476
H         4.76099536632398   -1.53462246164870    0.44287686817644
H         5.55042347836431   -0.67752737333546   -4.18352672252776
H         7.02563060082635   -0.85750020906493   -4.83638262864037
H         9.37945778139962   -2.45428897604445   -1.15608743493545
