32
 energy: -49.227509058363 gnorm: 0.284079475019 xtb: 6.4.1 (79825abcba525fcdf90b791dcacef51065a7a4e7)
C         2.26303716142914    0.96867497889085    1.93233333677817
C         3.40453096731470    0.67788324487449    0.92255696114501
C         3.70364004415350    2.05191572497924    0.23880571967089
C         4.33996466866617    2.21638835423762   -1.20250108217222
C         4.44787842676563    0.60924939549130   -1.48794260308399
O         3.00467454485312    0.37379474632736   -1.34356636860790
C         3.04920125444565   -0.38726822865638   -0.10519113396456
C         4.06075242299450   -1.47879369482210   -0.52931235047276
C         4.77227705139289   -1.01621096964748   -1.83700800633017
C         3.95395847155015   -1.27871584997998   -3.09073690221216
N         3.35207374198064   -1.41041204971043   -4.19093280788670
C         6.20920248359303   -1.32405043296351   -1.92999479076517
C         6.95387424075891   -1.85810705836583   -2.96502044237257
N         6.45493947470492   -2.32565787778844   -4.12244904538514
N         8.27488046941184   -1.97061378487660   -2.70661746669997
C         8.54285923273009   -1.50541542882321   -1.50890779117930
S         7.21373747122248   -0.97198010332855   -0.56789886712606
H         2.43975004370961    1.73735031723304    2.69521525254406
H         1.92920229766779    0.02820304809307    2.38926572854870
H         1.36997030010956    1.27972234694353    1.37297821596728
H         4.22775331205155    0.35103031300578    1.55787509874544
H         4.28499971480022    2.62419042395123    0.96822954091106
H         2.73796590413655    2.58661985678690    0.29377143815980
H         5.38889239343152    2.53802725124878   -1.20772232831904
H         3.68059252166027    2.78647684115643   -1.87665391335327
H         4.92471618295857    0.44534232820189   -0.50114195319352
H         2.06018100179721   -0.84976168243297    0.01314247896202
H         3.43885496202903   -2.37045493758898   -0.65704098388162
H         4.78082716966531   -1.64051380379773    0.28255376388143
H         5.67438124764568   -1.85013357322754   -4.56728868458143
H         7.12828274181289   -2.63016677262321   -4.81970453260913
H         9.57576794709260   -1.62772033234816   -1.21136374580651
