32
 energy: -49.228828979638 gnorm: 0.282081588557 xtb: 6.4.1 (79825abcba525fcdf90b791dcacef51065a7a4e7)
C         2.26489563795286    1.00000935291006    1.81115780336176
C         3.46524103304385    0.81523231212907    0.84562963264096
C         3.84368422086475    2.18291023388319    0.18898276357797
C         4.56337750356848    2.17482850694434   -1.22215218127705
C         4.46821895722235    0.56081991588570   -1.47102759691087
O         3.00977434818611    0.39904375827063   -1.39429023264290
C         3.01106108565435   -0.28037628432410   -0.10853774812890
C         3.89747112528120   -1.47516916858452   -0.53431893569753
C         4.74023525157027   -1.08126831468499   -1.78528206440593
C         3.93300973658545   -1.43886225453048   -3.02257903108908
N         3.20731487536692   -1.78449975613565   -3.99414571785011
C         6.16181772454801   -1.46056477219885   -1.84362444091306
C         6.89845700565203   -1.79119252139184   -2.96571109744925
N         6.48537914593575   -1.97263531220395   -4.23205458726519
N         8.22680915163932   -1.79978099825161   -2.72097832016756
C         8.53953651553020   -1.63961177562139   -1.45635268029921
S         7.20465017685977   -1.14809575906545   -0.50078679281450
H         2.47217602152710    1.64548840918718    2.67398435994178
H         1.85586601880496    0.06356604484027    2.21176868790620
H         1.50536755863975    1.53600616423348    1.22547738676172
H         4.24399609858522    0.54318218441246    1.55815070523723
H         4.46723349363810    2.78068622039799    0.86083593386489
H         2.90184362795692    2.75234779930474    0.08831777793063
H         5.60220190226472    2.50259304696407   -1.09122288621005
H         3.93249448835254    2.74932729681475   -1.91942709832678
H         4.95972864949711    0.43394788812014   -0.48597074344661
H         2.01310589152850   -0.67426666662458    0.12598281848378
H         3.27480826896897   -2.34024066356149   -0.78346368578946
H         4.53368443339264   -1.82011500241282    0.29032196759585
H         5.50468629724175   -2.14596956484222   -4.43570523498560
H         7.15527596493229   -1.93470273982941   -4.99499718396481
H         9.58303656261210   -1.57061464299509   -1.17933570139116
