32
 energy: -49.231577672381 gnorm: 0.275376326892 xtb: 6.4.1 (79825abcba525fcdf90b791dcacef51065a7a4e7)
C         2.27240835347949    0.90430698528570    1.93676111465232
C         3.39590322844210    0.73773518935990    0.87977039889235
C         3.58548138616013    2.14448147321440    0.22397144255678
C         4.27824146334408    2.30139464289743   -1.19193367482852
C         4.42959155878597    0.68889691477559   -1.42206858131031
O         2.98769731737237    0.41693142736103   -1.34398785555706
C         3.08326075185182   -0.36515863615541   -0.12170496505880
C         4.05141855726406   -1.46847061515949   -0.61151672290981
C         4.81430802633817   -0.90461029661232   -1.84860168578963
C         4.02552191158145   -1.29717828682358   -3.08718841334077
N         3.28639174964577   -1.54429473906476   -4.07848060305716
C         6.24134082971690   -1.26086896476873   -1.91805306696155
C         6.93853590845321   -1.82267787512351   -2.97129585417209
N         6.50272509711108   -2.13434473417703   -4.20422462092585
N         8.21584333453814   -2.15003503858408   -2.67836182589009
C         8.55205337966827   -1.85942365996218   -1.44335639071895
S         7.33353684713136   -0.99403544759505   -0.60494336683702
H         2.48618738689983    1.68666797282998    2.67587399253780
H         2.21002864821752   -0.01900592388481    2.52694957920218
H         1.30060357511151    1.04159099397879    1.44285261212162
H         4.33060663197879    0.56105693741857    1.41200281689608
H         4.15453860295763    2.79163948375819    0.89843189508238
H         2.56820527482308    2.56705459769811    0.13431905350745
H         5.20838562350040    2.87351339007466   -1.08591394708717
H         3.56678043875590    2.70853903304011   -1.92835149514153
H         4.97932739694634    0.57797003339424   -0.46629610466803
H         2.10825498923485   -0.81965379879170    0.09934256267280
H         3.31523732044811   -2.23261619058467   -0.88030949935937
H         4.64113671978258   -1.84984182272672    0.23144004280173
H         5.55042631841980   -1.88882456371477   -4.46136990355487
H         7.16069428939270   -2.69456498515754   -4.73855770857305
H         9.53811380180854   -1.83284193306230   -0.99909338980226
