32
 energy: -49.229414690895 gnorm: 0.276190567558 xtb: 6.4.1 (79825abcba525fcdf90b791dcacef51065a7a4e7)
C         2.67715070835663    1.24816304437928    2.05701961821733
C         3.48553072787249    0.89734782203730    0.78004401508143
C         3.60657248365254    2.17479850667769   -0.11349719650060
C         4.25097428026100    2.14015137757234   -1.56017320447760
C         4.27062914715878    0.50445372673832   -1.54900472642361
O         2.83546962961704    0.27328838097864   -1.33452730452310
C         2.98496887493318   -0.30463284818281   -0.00846933848537
C         3.91764630152554   -1.45423453092362   -0.45910355437649
C         4.68117293772170   -1.12298046937649   -1.77729011771650
C         4.07567647764497   -1.63591856742723   -3.07369236244176
N         3.53358088297363   -1.97011988491804   -4.16203145647159
C         6.12410798289456   -1.41512986906521   -1.74983944250657
C         6.95009816297709   -1.33703695024218   -2.85558458868943
N         6.55684738737491   -0.98766255897686   -4.09270705916230
N         8.27267183343916   -1.50156400348758   -2.63600076553999
C         8.52037254984306   -1.85396410090603   -1.39616645426312
S         7.10687629338366   -1.94999576813840   -0.43210113073531
H         3.06735688165453    2.12413148154941    2.59040172785378
H         2.46566651175942    0.42157857505002    2.74749259245449
H         1.68718686050167    1.55284809529520    1.69050135861413
H         4.49977071125592    0.63157774093972    1.07810529072470
H         4.17703010276681    2.89782742870221    0.47755592434565
H         2.58862617901977    2.57970377115693   -0.25941954232058
H         5.29675389740974    2.46551107515027   -1.62509059868319
H         3.64362394469907    2.57717112527851   -2.36911934519273
H         4.97448076805042    0.52124603652029   -0.69324412437793
H         2.00064051605901   -0.64146137008457    0.34325260396825
H         3.29454234283784   -2.33743597266270   -0.63180994648009
H         4.63000179422882   -1.69824456364249    0.33889166861154
H         5.57786501570990   -1.08418427030429   -4.34874200048521
H         7.28728520529423   -1.08406379792849   -4.79231368642389
H         9.46927483993390   -2.14063327356796   -0.96281141814207
