32
 energy: -49.228067116158 gnorm: 0.282315758052 xtb: 6.4.1 (79825abcba525fcdf90b791dcacef51065a7a4e7)
C         2.65392867147456    1.24803228251428    1.91718985122897
C         3.60389022500269    0.97282603313299    0.72176070725710
C         3.58761907324232    2.19469167216351   -0.25380418894313
C         4.11197851926156    2.11335470370902   -1.74637145381757
C         4.23475849445299    0.48506077620912   -1.64838264670827
O         2.83783144834720    0.14587667820055   -1.34396549582498
C         3.07790097551905   -0.27530007649446    0.02707406022145
C         4.03420706925572   -1.44596591314012   -0.30392830718602
C         4.69749060913860   -1.14403351374635   -1.68204650230589
C         4.03203980296906   -1.76684411770018   -2.89846436115053
N         3.56013883541037   -2.26626740862376   -3.95578455336088
C         6.13924605704544   -1.43930393188404   -1.73024356581222
C         6.94977307018112   -1.14950678778598   -2.81195248072822
N         6.53678739081486   -0.62076151082510   -3.97687818623663
N         8.26785354832672   -1.39109214546243   -2.64228314405464
C         8.46838353129027   -1.94664865918923   -1.47015888443694
S         7.08075532048599   -2.20286344907406   -0.49781242967951
H         2.95112187760038    2.17960744346404    2.41510746915477
H         2.72599740416038    0.39333638660392    2.60204122419078
H         1.60922549724569    1.45033107507436    1.64357056948428
H         4.58282842030439    0.92778621805285    1.19905351926307
H         4.15996561785977    2.97134445161793    0.26269014993526
H         2.56871713086519    2.61654319316336   -0.32685492224150
H         5.07282237580371    2.60131359187503   -1.95229233763632
H         3.33323548747279    2.33086937895945   -2.49503773920918
H         4.89863911589257    0.57894461557080   -0.76607678109538
H         2.22082047174231   -0.67448189129982    0.58576090170610
H         3.46542589443858   -2.38092889346979   -0.28241028563528
H         4.73033929778423   -1.49620603930549    0.54263147617344
H         5.71068018524164   -0.02921584045994   -4.00683513268525
H         7.27921318508492   -0.36472236256577   -4.62149429759274
H         9.40606518286677   -2.43292714458330   -1.23632622111431
