32
 energy: -49.232927717229 gnorm: 0.281167014544 xtb: 6.4.1 (79825abcba525fcdf90b791dcacef51065a7a4e7)
C         2.04188913247407    0.68221138354731    1.84500339647450
C         3.31633339617367    0.49271593142606    0.98065418340869
C         3.70895109998288    1.95509224643997    0.59045666021609
C         4.58307949872173    2.25303842734675   -0.69657604526871
C         4.48809091704916    0.70263026622684   -1.20963505712170
O         3.02477285289979    0.62097166524518   -1.31524253683315
C         2.94828886113416   -0.34812290422273   -0.23367949461985
C         3.82244974567681   -1.45533923416636   -0.86964895512662
C         4.80060477063700   -0.81255353333228   -1.89938546191483
C         4.30517332437423   -0.89411549721642   -3.33405809391919
N         3.89010767507592   -1.09574134347139   -4.50756039944621
C         6.21303830210888   -1.22298832166368   -1.96824153826542
C         6.76585393497270   -2.30204104562717   -2.63237307011964
N         6.09435899490752   -3.27532529058502   -3.27189864619286
N         8.11450666473774   -2.31472779466152   -2.55846653960699
C         8.60445361111488   -1.28443665619151   -1.90948059858768
S         7.42670140947290   -0.26487348510029   -1.19533328304746
H         2.17267496274538    1.47370864283947    2.59367234286666
H         1.88114938990774   -0.25455222228898    2.39396337817881
H         1.20747563238380    0.86667849630558    1.15440725525327
H         4.08539154755975   -0.00855918367929    1.56838696390879
H         4.25312774586540    2.40246948685496    1.42787047155189
H         2.74412473628746    2.46900812549525    0.42780107267645
H         5.62314484874723    2.53196014921998   -0.48635010671405
H         4.08671718518800    2.87465718308401   -1.45911727546441
H         4.87314156562726    0.30716285871342   -0.24872048281116
H         1.95326976865533   -0.77605947933284   -0.05237480316679
H         3.13828289691569   -2.16740097886293   -1.34189319197314
H         4.39550770685890   -1.96802459827488   -0.08699583428469
H         5.30192409734367   -2.88302927709396   -3.77332420400643
H         6.73423997385653   -3.91701196770311   -3.73132500598047
H         9.65379305923686   -1.04311014978274   -1.80441110771317
