32
 energy: -49.232234809645 gnorm: 0.271255267129 xtb: 6.4.1 (79825abcba525fcdf90b791dcacef51065a7a4e7)
C         2.74554260714254    0.98106964821846    2.08688967637157
C         3.64573182937900    0.78027960416704    0.83926834282810
C         3.73708913848389    2.12164969734858    0.04094048352226
C         4.39446101825991    2.14309759738454   -1.40014513743188
C         4.31804437187832    0.52246143982609   -1.60923074949186
O         2.87340008958191    0.39750982667513   -1.37151070908263
C         3.07390884587653   -0.27446765802103   -0.09753457160366
C         3.88591434145825   -1.49497354713087   -0.59306949706488
C         4.63822844976338   -1.11447632382380   -1.90439071505835
C         3.88465546077985   -1.52340084650058   -3.15949975591968
N         3.36083810698553   -2.01122960272348   -4.19761276267747
C         6.09258406788625   -1.34339164443432   -1.87961444368202
C         6.95986187679154   -1.56570173893923   -2.93291307996199
N         6.61017515169120   -1.52772436498123   -4.23039431261549
N         8.25856748635298   -1.66251164930438   -2.57447355553016
C         8.40455009908586   -1.51688058820263   -1.27824392188352
S         6.95219139945632   -1.37329970385667   -0.38010449263187
H         3.20579860373376    1.77830234859701    2.68410192961298
H         2.67619167434497    0.05648099878592    2.67429639822020
H         1.72286040102752    1.28501322814765    1.82433217732687
H         4.63946856048039    0.52773315730181    1.20922050816514
H         4.19679087911285    2.87739893519908    0.68518725847816
H         2.70233588599469    2.43323877632593   -0.19069335633586
H         5.43074535890364    2.50318063586545   -1.38661085896657
H         3.86193864771550    2.81744506916144   -2.09002190595357
H         4.93272029096393    0.42023813046068   -0.69285789660357
H         2.15610569830963   -0.70679669627270    0.32293312534471
H         3.20132000148523   -2.30024778103795   -0.87766540028865
H         4.50849630268153   -1.87660259856796    0.22579470657143
H         5.62869683290863   -1.70659155073569   -4.42528826984905
H         7.31607985521784   -1.70555515443667   -4.93916563906389
H         9.32871949674711   -1.76118913814248   -0.77167150296939
