32
 energy: -49.233417456510 gnorm: 0.277982528402 xtb: 6.4.1 (79825abcba525fcdf90b791dcacef51065a7a4e7)
C         2.18886017893285    0.64043863847220    1.92041313996761
C         3.32911062039470    0.58242534134633    0.86985154766043
C         3.63896909853463    2.02134347422159    0.34216832075600
C         4.51638007366309    2.28587874654860   -0.94992170822808
C         4.43784409356535    0.70224081722396   -1.35234047166605
O         2.98247291258334    0.50867308565091   -1.41189786760721
C         2.94899103611458   -0.37090196444307   -0.25431443827004
C         3.95624761743469   -1.46977967454801   -0.66957865833549
C         4.78686066671272   -0.87906873244945   -1.84918051380859
C         4.17269485237930   -0.93776291260629   -3.23833334601102
N         3.62079689487488   -0.85987172136851   -4.36943093223115
C         6.19029671800353   -1.32170677425609   -1.90022137808261
C         6.86130242696904   -2.19316323149166   -2.73768515404089
N         6.23469719663791   -3.07022254662113   -3.54099921561431
N         8.20559697203054   -2.26334485005729   -2.62617718430361
C         8.61025684836960   -1.40109184108667   -1.72312639655638
S         7.37534562225934   -0.50621468090211   -0.94158636057886
H         2.49018775699044    1.35298093793865    2.69859255290281
H         1.99092494548649   -0.32716659049987    2.39924729054000
H         1.25830774065556    1.02454082413730    1.48026009181862
H         4.14678240171685    0.29919536930920    1.53268685523715
H         4.03077083376072    2.46115115393714    1.26444654036300
H         2.65793470494636    2.48803028169021    0.13911358375984
H         5.55935533499959    2.58381789543159   -0.78510947041070
H         3.97199146521077    2.98014530433950   -1.61014101755423
H         4.88614597858109    0.41293093969482   -0.38108329205333
H         1.95080028200166   -0.80810130710660   -0.11816727094376
H         3.42839458184716   -2.38710716290816   -0.94888543869685
H         4.65787394802130   -1.72286713798035    0.13506713341374
H         5.26335261406507   -2.83228640377632   -3.72307862411733
H         6.75256075221170   -3.39364057922290   -4.35309536147405
H         9.65317556126512   -1.24197361704439   -1.48355739372577
