32
 energy: -49.225743711146 gnorm: 0.284808227288 xtb: 6.4.1 (79825abcba525fcdf90b791dcacef51065a7a4e7)
C         2.37918447156150    0.65516670624362    1.99565699600943
C         3.47000548211163    0.61809372194564    0.89295513856687
C         3.64716211257056    2.09000703065191    0.39592999510351
C         4.54183554363566    2.25378707053307   -0.90101299251885
C         4.44187090244346    0.70481049954079   -1.41743965135356
O         2.97881825654972    0.57887278517383   -1.36511879644988
C         2.94558131809565   -0.29692978195671   -0.20467152530948
C         3.83781695016980   -1.42713218533251   -0.77132883928469
C         4.71355681635127   -0.88313524689096   -1.94071542865356
C         4.19749386073860   -1.05646609211174   -3.35987914679073
N         3.66224779463582   -1.18230110386700   -4.49465547973194
C         6.12861509618528   -1.28746580741765   -1.89282802747655
C         6.76418372382897   -2.19189875483573   -2.72293895164112
N         6.24212856212533   -3.03293855332224   -3.63249438970844
N         8.10376773901966   -2.22837562778186   -2.55361259578065
C         8.53970279794022   -1.38964810381268   -1.64299338054414
S         7.28543117599069   -0.52294628057271   -0.86053166045478
H         2.50804961832742    1.43461875912777    2.75718592335584
H         2.29789738103509   -0.20353844344379    2.67443402407499
H         1.36143330822396    0.81228099475727    1.61264954883075
H         4.38442235999099    0.18683042563256    1.30039930060088
H         4.08295427417957    2.73022610632515    1.16906726231567
H         2.67935525441683    2.55449443556749    0.13314183403549
H         5.59421305265273    2.45896449573712   -0.66835012857765
H         4.23688688134170    2.90933381666357   -1.73258940240834
H         4.87861143008618    0.35428772781923   -0.46119345015777
H         1.91128512157185   -0.61769630276820   -0.02190305767594
H         3.17939749109807   -2.22333055561048   -1.13282959230132
H         4.55132123971243   -1.70610432019243    0.01408429906607
H         5.51038675954342   -2.67542769415936   -4.24078439753183
H         6.98249371136946   -3.52947713919331   -4.11992737546896
H         9.55314226223619   -1.25780245669153   -1.28810109468130
