32
 energy: -49.225033182656 gnorm: 0.284334413528 xtb: 6.4.1 (79825abcba525fcdf90b791dcacef51065a7a4e7)
C         2.20714200898711    1.13253962673027    1.82633819984446
C         3.37052066065874    0.80467267554672    0.85357427896179
C         3.60787952597662    2.13759787873780    0.07132212735518
C         4.51879855386786    2.23332367095387   -1.22111304238928
C         4.50379771248847    0.60825542491060   -1.40805160439848
O         3.05998157046477    0.33696973862409   -1.37772247112801
C         3.04603256196877   -0.34296429786319   -0.09231676358274
C         3.99384081877299   -1.51286293386043   -0.44944294128708
C         4.77717884353971   -1.03589915059795   -1.71007971966138
C         3.97741398533097   -1.37135316037328   -2.95837336633564
N         3.22069150523046   -1.53891276645240   -3.95302657795748
C         6.19567736830800   -1.40493854587632   -1.85092792824564
C         6.89689046854499   -1.83286894814175   -2.96277609959643
N         6.45098748303995   -1.87005200702429   -4.23043874578125
N         8.23397870621048   -1.88780226230278   -2.77929669671926
C         8.60080781146702   -1.55246935670968   -1.56450501023715
S         7.27226186490793   -1.36139634853057   -0.49910721131245
H         2.62174325242979    1.76452185434395    2.62181435247299
H         1.95505918694566    0.17422854933823    2.29837051828919
H         1.34541173970584    1.45420764164200    1.22538257215207
H         4.23899614292370    0.58715987727805    1.47534234118108
H         3.99448910445659    2.85602273818142    0.80066104998147
H         2.63194115389741    2.52376601843633   -0.27490719754748
H         5.54467119699062    2.57889579584822   -1.04252571437224
H         4.07451772549029    2.78743770040248   -2.06362520040776
H         4.92471089248262    0.46179367094010   -0.39345989122256
H         2.03974686235867   -0.76106726599893    0.04422296661822
H         3.42199476008362   -2.40839671020245   -0.71239193073329
H         4.78099715362045   -1.66418769795728    0.29973884291336
H         5.49054791176236   -1.61856877707033   -4.44858738204928
H         6.93321005042397   -2.48052571897158   -4.88394106182240
H         9.58646124335576   -1.57649127163250   -1.11919431247055
