32
 energy: -49.230381685407 gnorm: 0.280560935367 xtb: 6.4.1 (79825abcba525fcdf90b791dcacef51065a7a4e7)
C         2.27465095625944    1.14625124463313    1.91572266231326
C         3.37237469306778    0.86931124028813    0.85481592777866
C         3.62830301674347    2.21387328756926    0.09877304093004
C         4.54733676882374    2.14602727921070   -1.18967542328011
C         4.43208777019963    0.52916625024432   -1.40989331782019
O         2.96804232651654    0.44216897504986   -1.31976432472072
C         2.99875978540990   -0.28700063969426   -0.06193253530226
C         3.91990664184506   -1.46545004801019   -0.45852788213018
C         4.71947109428203   -1.10564484542702   -1.74754102965834
C         3.99723675123153   -1.67767769810665   -2.95648528165690
N         3.40090066697801   -1.95408366306039   -4.03260012503167
C         6.15079553900552   -1.42327197511294   -1.88388505471618
C         6.93597557713420   -1.55086073333379   -3.01447959282611
N         6.53566188052199   -1.44092684838460   -4.29308982370491
N         8.25338855133188   -1.78959970797839   -2.83583449406815
C         8.52826300751967   -1.80629044310842   -1.55252001721944
S         7.20704892786876   -1.46461531307063   -0.51605141769334
H         2.63010614341767    1.82155294366613    2.70420047491656
H         1.94656529857856    0.22931722486704    2.42199549738573
H         1.37578393769470    1.61036798726889    1.48696775964303
H         4.26182027873370    0.71811101759829    1.46652014137109
H         4.16093053534469    2.84245635837171    0.81900061410275
H         2.64267548295109    2.63221323161331   -0.17506329204827
H         5.52715353163180    2.58289572645660   -0.95982053558537
H         4.19339438087485    2.68379422485365   -2.08398300168339
H         4.98642570206852    0.35221657286143   -0.46680606594949
H         1.97526760648753   -0.62840963399948    0.14292779513952
H         3.32760126703146   -2.35150781447134   -0.70794080452177
H         4.65047100158244   -1.75531182861574    0.30700688871851
H         5.60821134798382   -1.73234284603366   -4.59005621890030
H         7.24511596921983   -1.63145234105295   -4.99498509233006
H         9.52094390496747   -1.85666207292043   -1.12539158978625
