32
 energy: -49.229143993036 gnorm: 0.283182158272 xtb: 6.4.1 (79825abcba525fcdf90b791dcacef51065a7a4e7)
C         2.10881317606386    1.13199309328649    1.68247396072602
C         3.36965505064111    0.88946428334861    0.81145512298706
C         3.56274560428663    2.20330157686084   -0.01407189807471
C         4.39680301308700    2.18644551479225   -1.36069348025684
C         4.47860248789961    0.55348796297735   -1.41338458609365
O         3.03545644408585    0.28629684043989   -1.34225629652552
C         3.10057076210823   -0.34690639831006   -0.03474473415222
C         4.12562966503310   -1.48302382064123   -0.26503556401056
C         4.81399310889922   -1.09528901703462   -1.60896096890531
C         3.95569971510937   -1.38551891831532   -2.82940733072443
N         3.20532884356442   -1.47213223877943   -3.83910126547779
C         6.22320322641773   -1.46266116135101   -1.82651768985296
C         6.95332133671853   -1.61737919141650   -2.99014154834906
N         6.46230349134091   -1.48916760860870   -4.23498848993073
N         8.26230263620761   -1.92771433034042   -2.86870276933591
C         8.57006111467344   -2.00631967014040   -1.59518931658206
S         7.32751092989334   -1.56544759075741   -0.50051285980827
H         2.29091430525264    2.01210734940747    2.31201038668853
H         1.93700397978024    0.32307758576179    2.40417866591759
H         1.11587152093297    1.29560492074801    1.24145800363093
H         4.19090448500193    0.75356434951058    1.51518630665170
H         4.04398235942504    2.94590923154603    0.62973052979235
H         2.52491932958317    2.47833129872827   -0.27623894369802
H         5.43380872623408    2.52281950534560   -1.23740559817066
H         3.90159178623684    2.61874478123446   -2.24507899413150
H         4.99538738123551    0.50589861488125   -0.43426052844722
H         2.06373211505505   -0.65240638645807    0.15941879474920
H         3.67740267804659   -2.48158730049600   -0.25532109689627
H         4.90748245314296   -1.51265613681637    0.50413006708097
H         5.50351935993278   -1.20811584785773   -4.42212403108724
H         7.07337279379318   -1.54385927984440   -5.04485586336144
H         9.60554859466078   -2.08094677963602   -1.29090682823802
