32
 energy: -49.227919031276 gnorm: 0.277032457475 xtb: 6.4.1 (79825abcba525fcdf90b791dcacef51065a7a4e7)
C         2.57406757082087    0.84555504817005    2.08910316840221
C         3.49619589556839    0.80829690443790    0.84190332314929
C         3.50615794308704    2.19907256808294    0.12734677018800
C         4.34156619782716    2.26893761542587   -1.21672818677638
C         4.42668942723176    0.65403327671253   -1.46341797583190
O         2.97860364210359    0.41100920877539   -1.40767127738128
C         3.01452757285637   -0.26710151002304   -0.12172881153548
C         3.99362472172839   -1.38961473209542   -0.54110364760407
C         4.70582408851288   -0.96835912671924   -1.86232799233461
C         3.92568079901032   -1.39084164382733   -3.09653834486426
N         3.46253877376693   -1.74879393524926   -4.21341333983900
C         6.12654020491856   -1.34620216107473   -1.94579476481986
C         6.94914205086605   -1.80422456560477   -2.95800633410491
N         6.63179164132326   -1.86781707805165   -4.26277655970832
N         8.25216777340143   -1.97315314146354   -2.64483799183306
C         8.46808545194286   -1.60672035731319   -1.40313063360202
S         7.06386007477291   -1.22429466549685   -0.49841113192757
H         2.92741057405794    1.62719029885404    2.77340799326935
H         2.50472445429089   -0.14880127778125    2.54863271996706
H         1.58551591171114    1.26019216328281    1.84819091224183
H         4.50125710741788    0.56933460640932    1.18961870185816
H         3.91637372433847    3.00747987405868    0.74032078971910
H         2.45905018950675    2.45624483487408   -0.11531361021271
H         5.29951784848151    2.77316658937967   -1.03837466914147
H         3.67854443755664    2.75257503833820   -1.95208628690294
H         4.98691236855227    0.48669311945481   -0.52205575998213
H         2.07094108224764   -0.77623560906584    0.11594975876035
H         3.53158412097077   -2.36127880516489   -0.74239508267027
H         4.73276114570782   -1.53131258088835    0.25726136107536
H         5.65668352076456   -2.02660282512644   -4.50200041666657
H         7.26282857396491   -2.35569921356686   -4.89209797601047
H         9.42688797574908   -1.84312034613094   -0.96131152514665
