32
 energy: -49.230682345446 gnorm: 0.278571457256 xtb: 6.4.1 (79825abcba525fcdf90b791dcacef51065a7a4e7)
C         2.11526516254516    1.00723493411546    1.78172667728785
C         3.35602964377428    0.90857482686222    0.85545136368222
C         3.52852868413862    2.26476471551717    0.09654404206553
C         4.32393128088660    2.26737661040413   -1.27336597421931
C         4.49997853153743    0.64687732167364   -1.41123284866460
O         3.04746648091578    0.43216755332417   -1.35440599954039
C         3.08698410960924   -0.26338989509676   -0.07792219827548
C         4.10214246808195   -1.38691776145921   -0.39679687647233
C         4.82679419203871   -0.98665414804934   -1.71777641063549
C         4.05903392372637   -1.42397748700169   -2.95457983816261
N         3.33136500529275   -1.86850013167263   -3.88352424421628
C         6.23932180550485   -1.38465401491026   -1.83830947279677
C         6.94851611003731   -1.66521662842412   -2.99128764836534
N         6.46483156096055   -1.56035555772122   -4.24118126817221
N         8.20249786414192   -2.14109077014158   -2.83140993588929
C         8.53582720238336   -2.08978937711714   -1.56295011579112
S         7.32733797522302   -1.50124652106833   -0.50003582386986
H         2.29466405144137    1.84357287844028    2.46906423493565
H         2.07847742044067    0.11062395869846    2.41375183544381
H         1.16966762998236    1.21100350834016    1.26065018610405
H         4.14914192217603    0.73903715142461    1.58372802426964
H         4.05951381101353    2.96798597080860    0.74544401069026
H         2.49632226583514    2.60505664028036   -0.10397428278191
H         5.24983153686894    2.85552812872595   -1.25067875333583
H         3.77244929948851    2.69986127815913   -2.12370660330575
H         5.06164268397020    0.62321802443768   -0.45625174522998
H         2.08668742263710   -0.66715168102039    0.12810464008499
H         3.60159282923830   -2.34586105550219   -0.56415472911160
H         4.89549061916850   -1.40681419282195    0.36082471091133
H         5.56359365010716   -1.12686626229626   -4.42320894330454
H         7.06959433094006   -1.57933193360791   -5.05738217758873
H         9.53968120141665   -2.24786318391115   -1.19189596884502
