32
 energy: -49.226622455755 gnorm: 0.287847037171 xtb: 6.4.1 (79825abcba525fcdf90b791dcacef51065a7a4e7)
C         2.53121388764159    1.35383129053538    1.70473349550366
C         3.62508590227834    0.98217633414647    0.66910186261698
C         3.89127288178880    2.21494269307593   -0.25522429695488
C         4.32981675370698    1.96537080510335   -1.75679637763200
C         4.34399771751459    0.33607903052332   -1.61110810234176
O         2.90277077288788    0.21057603170666   -1.35374703464591
C         3.07900180910610   -0.27439419890670    0.00585555322059
C         3.96933994760369   -1.50960453698417   -0.26999916676113
C         4.62918568095020   -1.33252836185387   -1.67127202323936
C         3.78779414469725   -1.91041869004540   -2.79754608845933
N         3.32466279858447   -2.54597124107085   -3.78325519469340
C         6.08518195986154   -1.53172008460393   -1.76381299669378
C         6.87665030698837   -0.98875290763858   -2.75869745901367
N         6.48984522457407   -0.12008852510780   -3.70895250623908
N         8.20756357608606   -1.12468924604779   -2.57247582750571
C         8.48621924972466   -1.83160957156383   -1.50226778213901
S         7.10522180985769   -2.32622939059493   -0.61637106034550
H         2.86126681531182    2.22569602662212    2.28352100678375
H         2.49570358050068    0.55969287795639    2.46157137730637
H         1.54186052986238    1.49182274569178    1.24720171887232
H         4.51534751815716    0.82547127655902    1.27822810768206
H         4.53572535674604    2.97669643905412    0.19416278038641
H         2.93870822791991    2.77488583015293   -0.27847394167460
H         5.33746016320868    2.37513600348201   -1.89988882095786
H         3.56147529610200    2.30945073569066   -2.46779212757001
H         4.93199739965232    0.29176673517085   -0.67286075238280
H         2.13315915594551   -0.67640028279730    0.39294324449205
H         3.43448702411961   -2.46394703008206   -0.23403278600821
H         4.82818511720007   -1.68941969975211    0.38866547063747
H         5.51192924261820   -0.17680524344969   -3.98050427202498
H         7.20729220641044   -0.01949074777178   -4.42129508750081
H         9.49392730269136   -1.98946942848252   -1.14171805825678
