32
 energy: -49.229220576684 gnorm: 0.289387979373 xtb: 6.4.1 (79825abcba525fcdf90b791dcacef51065a7a4e7)
C         2.44472364238265    0.81472718886287    2.06348092233983
C         3.45602648242738    0.64837115777488    0.89865968862164
C         3.65366714575908    2.09172057842007    0.33065627741780
C         4.45339777789001    2.28821151992930   -1.02254281977359
C         4.36428681253924    0.70160946936694   -1.41083527197193
O         2.90200472905230    0.56854383279245   -1.35475079880976
C         2.99149745804395   -0.30359679892465   -0.19452044623381
C         3.84476308973368   -1.44511957278331   -0.79735204213068
C         4.74991389575241   -0.86514861804140   -1.92635767148923
C         4.10931207916402   -0.97737995836645   -3.30019306845743
N         3.52821327696341   -1.27138333926566   -4.37997376154937
C         6.14286627716001   -1.34163102525692   -1.95489779382672
C         6.87723323210848   -2.14502992589621   -2.80712192427746
N         6.49664117882192   -2.79702371313962   -3.91943232110221
N         8.18583391080250   -2.26572347211557   -2.49489661264469
C         8.49488924872459   -1.53234871972977   -1.45116443277019
S         7.18871282095548   -0.66992136149300   -0.75349840383546
H         2.76731154357467    1.62179582089561    2.73329828961226
H         2.57459599422740   -0.04907791831084    2.72808177145758
H         1.44172223694961    0.93121530202960    1.63033460145422
H         4.39905570952838    0.35208958614344    1.35808336125881
H         4.13208678156934    2.66692560158655    1.12927404721675
H         2.63405764080045    2.48433566149394    0.16420467063365
H         5.48901793854740    2.63527346358215   -0.91877819860683
H         3.88973870719041    2.90997720725099   -1.73665095798319
H         4.94024980328135    0.34481240527826   -0.53392148678357
H         2.00251423035642   -0.72850341098711    0.02326533331849
H         3.14851837868865   -2.18051431280654   -1.21276594134196
H         4.48915185629772   -1.90067779086994   -0.03510703580812
H         5.56397489013188   -2.73835694457331   -4.31939308675999
H         7.19184705598581   -3.31342321596665   -4.45075366775664
H         9.49468043883087   -1.40807470709968   -1.05700088249357
