32
 energy: -49.231894999249 gnorm: 0.277711405188 xtb: 6.4.1 (79825abcba525fcdf90b791dcacef51065a7a4e7)
C         2.42086481331049    0.85139847592681    1.96508165658338
C         3.48239474673527    0.72603909177954    0.84051262964850
C         3.62805779292379    2.13482715648887    0.17790737601494
C         4.51621888954399    2.21017705346590   -1.13160315324184
C         4.49683342835089    0.60372284717068   -1.43973776213845
O         3.02901564090598    0.55804660970310   -1.38928527921946
C         3.03008861863348   -0.28458087582918   -0.20406358227640
C         3.88601806264370   -1.49797343682844   -0.63950094671994
C         4.73304187908417   -1.02058784150561   -1.85809507742643
C         3.92661966708234   -1.43053238799920   -3.07957734428866
N         3.19939688339692   -1.78623196318066   -4.04635807275950
C         6.15458552191282   -1.40163107863223   -1.90485070838194
C         6.96117690867528   -1.79060434494319   -2.95800821654758
N         6.50371958706160   -2.18802694421271   -4.15799518282093
N         8.28191613096616   -1.81079239261109   -2.67564733788756
C         8.52518955503866   -1.54086442708688   -1.41442272374880
S         7.14862548680603   -1.00032295738068   -0.54868489830183
H         2.73416818298391    1.61586669887290    2.68723632916927
H         2.43828836591872   -0.14548659306238    2.42403367917046
H         1.42859993681935    1.06509183832659    1.54443620373230
H         4.38483350322234    0.34865493562837    1.32149339185154
H         4.05465734322484    2.78088590294640    0.95131375564557
H         2.61202283818824    2.48574332572390   -0.07897215907489
H         5.50372217709286    2.66008998826303   -0.96991267606536
H         4.03488635142268    2.82041707526411   -1.91274376235715
H         5.00178483506424    0.40701474855271   -0.47312238064277
H         2.00845455359758   -0.66557489576329   -0.07302353512509
H         3.24579935092508   -2.34978895541549   -0.88982304375315
H         4.58847357029525   -1.84484355118843    0.12862990748146
H         5.53358282970233   -1.95073167130146   -4.34721051628959
H         7.18927442059538   -2.18354057191090   -4.90784615470299
H         9.46745413882488   -1.52215573031127   -0.88321768135297
