32
 energy: -49.224640729575 gnorm: 0.277261719937 xtb: 6.4.1 (79825abcba525fcdf90b791dcacef51065a7a4e7)
C         2.72157980522111    1.35667855469990    1.94607093161082
C         3.63295664617119    0.91311637089501    0.77139603570305
C         3.84905428601786    2.15266607430267   -0.15691727149524
C         4.16898888431583    2.00080363631283   -1.70090730459866
C         4.19793977544587    0.36599445378513   -1.65012698520019
O         2.78060003762667    0.22136596238968   -1.29047229958592
C         3.06858905499658   -0.29545110383670    0.03796104251224
C         3.95998880573992   -1.50514150303866   -0.33163066280915
C         4.57373637785371   -1.28280252832243   -1.74732741060675
C         4.00927434521065   -1.92727703276241   -3.00288523671019
N         3.69238156312844   -2.30439251231207   -4.16366213780011
C         6.03348860739768   -1.47188207454089   -1.78655402446195
C         6.90377087835710   -1.11261384195212   -2.79876236150031
N         6.56112949089169   -0.53029609393511   -3.96095148757722
N         8.22614569977915   -1.26757390837084   -2.57116726430456
C         8.45339198512192   -1.84063888686107   -1.41242387203681
S         7.02349102330830   -2.04432532971668   -0.49019246525680
H         2.86544428341689    2.40961009399895    2.21941361254364
H         2.95521290895971    0.72584235696149    2.81335499322325
H         1.63178773183318    1.31795542245593    1.81171770286415
H         4.58477881783161    0.70732537755247    1.26113231495070
H         4.44908225015629    2.94007998081756    0.30943269306821
H         2.83093395081127    2.57492525311012   -0.23806191299249
H         5.14898351811828    2.36468431363596   -2.03396822661390
H         3.28967615707597    2.30235857189968   -2.29262370685715
H         4.92809166256304    0.37714962058674   -0.81659889345745
H         2.14297896723157   -0.67336065689932    0.49237762552462
H         3.23503071044003   -2.31661658346908   -0.45026785803987
H         4.70540356509964   -1.71044459792952    0.44682620146274
H         5.60723107382239   -0.61404821610382   -4.30203829113137
H         7.25868443970370   -0.45635542775962   -4.69595618634681
H         9.42289365429965   -1.98607562961794   -0.95492411780242
