32
 energy: -49.225637896782 gnorm: 0.279640116125 xtb: 6.4.1 (79825abcba525fcdf90b791dcacef51065a7a4e7)
C         2.58299881955481    1.13580074220986    1.97795338023921
C         3.57518286522008    0.75564765824871    0.84734702937144
C         3.92849870475625    2.12044639908874    0.17100424108205
C         4.49177670546369    2.13747611757423   -1.30945293442382
C         4.33515041408939    0.52386433817166   -1.52795481502185
O         2.88100693645289    0.44956808908011   -1.33029946669700
C         2.93822877168620   -0.27700211834718   -0.07189011602724
C         3.73618528703323   -1.51834815672587   -0.53758080340417
C         4.59116338200100   -1.13111514618109   -1.78232214940857
C         4.05301179683754   -1.63300076769662   -3.11231986122867
N         3.60187150566620   -2.15205424060678   -4.16924751211192
C         6.03430824712005   -1.41469078161587   -1.85362501495304
C         6.85296890277673   -1.49317653128220   -2.96477995293359
N         6.57092824313802   -1.50771077771630   -4.27909439243126
N         8.17593620044055   -1.54913745776249   -2.69810934496679
C         8.41922074329107   -1.59218003277426   -1.40904357530164
S         7.01745150422433   -1.45859103756933   -0.43241023768606
H         2.99668138515403    1.90409601877167    2.64328573233619
H         2.22599149079888    0.31672224267627    2.61543009164155
H         1.76579411821304    1.57958471316829    1.39277879217719
H         4.48641374098161    0.29672870353451    1.23102487177584
H         4.68655970340188    2.66544204778416    0.74184552647823
H         3.06667640303582    2.81144738605303    0.20616441884190
H         5.53954576176383    2.45802148127933   -1.25324904593901
H         3.89427808694099    2.74926551222751   -2.00440881957235
H         4.94395459409352    0.36895037389680   -0.61506137504195
H         1.94095060617094   -0.62898592457873    0.22409595864129
H         2.99127141807411   -2.23168560948715   -0.90416480953127
H         4.33917604808526   -1.87297423884290    0.30765886392280
H         5.69413523828254   -1.93082936220221   -4.57146658934713
H         7.29323735810461   -1.51149841396033   -4.99361326916610
H         9.39907713287146   -1.52580398524608   -0.95531785039503
