32
 energy: -49.229968769544 gnorm: 0.277964850175 xtb: 6.4.1 (79825abcba525fcdf90b791dcacef51065a7a4e7)
C         2.20825880319772    0.74160817938734    1.88637007955220
C         3.41964982159576    0.69055185825619    0.91830948130558
C         3.68608026195972    2.11023590249678    0.31959478439243
C         4.52702254971296    2.22704448159453   -1.01775236189338
C         4.55194926112105    0.63081110890220   -1.37473349776760
O         3.08863426832153    0.49907954300947   -1.35289640056240
C         3.03938413506917   -0.32145522750699   -0.15328404029814
C         3.97440714220614   -1.45259973147587   -0.64398404476768
C         4.76209627086397   -0.96633516894680   -1.89834069102705
C         3.98832413835269   -1.12375411560094   -3.19714251425735
N         3.26134693268792   -1.34173449761513   -4.20413249562699
C         6.18877397563161   -1.32508118335538   -1.96204596495390
C         6.91311075849385   -2.00299426967496   -2.92475082653327
N         6.38619930951122   -2.66548515341815   -3.96909309757100
N         8.22085120655865   -2.11596250427145   -2.60609677325249
C         8.55416333878336   -1.44709787249565   -1.52709088079286
S         7.22830806777970   -0.72095827444754   -0.71996958865765
H         2.37020513074449    1.47089974771215    2.69010214400625
H         1.94661486525705   -0.17991350356079    2.42215046042247
H         1.33880968207466    1.00434514172459    1.26812696433797
H         4.31888240552080    0.27486814092163    1.37300147616059
H         4.22246683858646    2.74084556905827    1.03524651291640
H         2.70439805381816    2.59657042540174    0.17387225382488
H         5.53144583513384    2.62130319297528   -0.81920227412092
H         3.98800892562790    2.83789915215545   -1.75976006503320
H         5.07482483854250    0.28527388023400   -0.46082953773320
H         2.03038066229865   -0.73830610968663   -0.03407233517328
H         3.36161342002769   -2.32423088377165   -0.89473055820399
H         4.72765594529826   -1.65131776049436    0.12861870351383
H         5.42825546332670   -2.45490243963347   -4.23606747769109
H         7.03500881380651   -3.05509802717669   -4.64697956857355
H         9.52210147831554   -1.33132427198779   -1.05796020815025
