32
 energy: -49.232251091412 gnorm: 0.278862119135 xtb: 6.4.1 (79825abcba525fcdf90b791dcacef51065a7a4e7)
C         2.58487319071828    1.23823041114940    1.95065310403590
C         3.50940763487993    0.85406839532078    0.76538019254654
C         3.77920867151413    2.16742819877522   -0.03913250499589
C         4.45203173946527    2.06721310576053   -1.46972385862705
C         4.35745271803438    0.43656341354453   -1.55946923385314
O         2.90877651967329    0.26330789254994   -1.38499682807160
C         3.02591552307230   -0.32869039234477   -0.06189850035353
C         3.91256785319145   -1.53685920893285   -0.44753844336134
C         4.63953714477315   -1.21778241453744   -1.78918804245342
C         3.84738391599502   -1.80242241719163   -2.94723793117045
N         3.35417966465449   -2.29677763313230   -3.99719155628542
C         6.08061770710964   -1.51902995565236   -1.81570374665777
C         6.91095125494265   -1.31064874194069   -2.90113180595272
N         6.57611396766720   -0.80798166736993   -4.10212741145914
N         8.23607365090912   -1.44480597416175   -2.67632123778648
C         8.47301854043581   -1.72373065403970   -1.41584960531562
S         7.08113594828244   -1.69251080097373   -0.41669803171606
H         3.04251656423931    2.07720184733451    2.48988172698006
H         2.56823194538929    0.40084477048872    2.66003927318518
H         1.57848366202288    1.44993154756848    1.56392350856419
H         4.47562035719554    0.65653765433812    1.22967706359949
H         4.36984149921773    2.83894012757701    0.59155053736440
H         2.79107465506618    2.61022608690738   -0.26044106444597
H         5.48376192661603    2.43317622291905   -1.54274453637295
H         3.82934458807969    2.54388113600993   -2.24387038723267
H         4.99207255798931    0.36613013739094   -0.65375840496583
H         2.01274708891155   -0.65041043506388    0.21387320706037
H         3.17385183273604   -2.28809999756758   -0.74429887346736
H         4.59356051677012   -1.92751198407061    0.31889943352539
H         5.59884858444658   -0.87230537782058   -4.37432522146831
H         7.17861962571537   -1.15227677881670   -4.84423915941067
H         9.48927663878888   -1.85748655241668   -1.06984354161475
