32
 energy: -49.232322711636 gnorm: 0.281345509021 xtb: 6.4.1 (79825abcba525fcdf90b791dcacef51065a7a4e7)
C         2.27833547592339    1.04540720207988    1.86880193157317
C         3.43883119736033    0.81722169598134    0.86461204638491
C         3.71029426494697    2.17218855768877    0.13295648539006
C         4.41468309581595    2.15632007912818   -1.28581415531142
C         4.37939219753789    0.53865098110146   -1.52647802829665
O         2.93059568691654    0.38287787404595   -1.33715228498177
C         3.02323068969788   -0.31464034542601   -0.06449373316263
C         3.98742301848391   -1.46397963195276   -0.44382837625290
C         4.75598295673735   -1.09766465001077   -1.74975600008421
C         3.97917115630619   -1.55094193611040   -2.97511039115569
N         3.26039865436517   -1.73475554250646   -3.99472737661274
C         6.18459356321640   -1.43838758611047   -1.85533054879913
C         6.94124873146684   -1.54847699440569   -3.00701795626279
N         6.55077172351602   -1.73517805032199   -4.27975165314697
N         8.26507259202585   -1.70969405846598   -2.79257270648540
C         8.56240559073874   -1.53525406543539   -1.52612319241701
S         7.22042123767769   -1.37267769713919   -0.47290782107739
H         2.42917291355646    1.82847272734042    2.62254889612375
H         2.13384703198193    0.09770681012347    2.40331800825124
H         1.35393733044114    1.28349764234135    1.32474490698355
H         4.24250174104745    0.43326934849435    1.49298395491541
H         4.30463732719463    2.78443307980394    0.81812031757039
H         2.77994332265024    2.76048720436722    0.03392059153568
H         5.42355767358016    2.58631392867962   -1.31752504443207
H         3.79681333233572    2.62156386478505   -2.07069613794264
H         4.91830513894218    0.39654436982547   -0.56867123552827
H         2.08938906066932   -0.80492564341410    0.24148704574171
H         3.47557264391553   -2.41320541014790   -0.63120619533541
H         4.72507201743678   -1.66406744026638    0.34333516823793
H         5.58028550727511   -1.72521330983172   -4.58196684243637
H         7.27742646404305   -2.01120208401469   -4.93401892033146
H         9.51106504537536   -1.75026463325788   -1.05261811926192
