32
 energy: -49.182134889691 gnorm: 0.302299687796 xtb: 6.4.1 (79825abcba525fcdf90b791dcacef51065a7a4e7)
C         1.78162364622217    0.74696164056560    1.40244346120676
C         3.18356389428210    0.67091557973246    0.74214291617292
C         3.60656488693982    2.12775129515625    0.36313485035447
C         4.80530486003512    2.17652566018336   -0.67125825891010
C         4.70995091307977    0.59941234396856   -1.09509674814227
O         3.27286415072871    0.55059438798548   -1.39761827251374
C         2.95186192031289   -0.38387393513587   -0.33061348216921
C         3.95500618470939   -1.55149768758872   -0.48840694327898
C         4.94483341406494   -1.01101916934701   -1.56471685495510
C         4.04121928724272   -1.11762252191615   -2.78229949941395
N         3.19642222727393   -1.24746073757083   -3.70939178958397
C         6.34711541327816   -1.40733558624841   -1.77615207692667
C         6.82099407935425   -2.11755939734644   -2.86337411032686
N         6.19954378426185   -3.15739343686029   -3.44623372982649
N         8.12924187201103   -1.86663946863644   -3.08701269538443
C         8.65669260677508   -1.03441240434102   -2.21987693580008
S         7.57510274497533   -0.44894955597292   -1.02655706230708
H         1.41693248920948    1.72746913047244    1.73362839219164
H         1.65689558106937    0.06692398804090    2.25491755503705
H         1.08525076783101    0.26017707442092    0.70580680122549
H         3.80827359060027    0.21464478216293    1.51006983908249
H         3.86726387514880    2.65325845818920    1.28693935712027
H         2.74648083455652    2.54501831560137   -0.19148207966602
H         5.69504091029129    2.28995440058330   -0.03941026387297
H         4.76657221480079    2.90751377396690   -1.49491516882125
H         4.87714974865361    0.22821245170105   -0.06443167803061
H         1.90726896376529   -0.69435461805038   -0.46659656612408
H         3.53742432829067   -2.49021758536333   -0.86597968640571
H         4.50398534593741   -1.76351373068050    0.43758371515748
H         5.22400761128882   -3.39260197263273   -3.28411361900296
H         6.66287301266297   -3.69844850119039   -4.17071111087252
H         9.55561599617652   -0.43607942924301   -2.28564735033985
