32
 energy: -49.229878558874 gnorm: 0.284494786768 xtb: 6.4.1 (79825abcba525fcdf90b791dcacef51065a7a4e7)
C         2.40891024360536    1.04345455754111    1.96532707290922
C         3.44071188284882    0.86908876714644    0.81981486491909
C         3.54902769788308    2.18599545672465   -0.01623041474908
C         4.29440652700592    2.22174395992911   -1.41353425108763
C         4.32444623621875    0.59831787589436   -1.61253979379280
O         2.89573669672517    0.37430464516466   -1.35229385811928
C         3.04360016183471   -0.29896976269234   -0.07182102839377
C         4.07625429267964   -1.40581366887511   -0.39285752161059
C         4.76945929940479   -1.03122800719929   -1.73802308950473
C         4.01052042763306   -1.59453679057986   -2.92843699217093
N         3.34625329685412   -1.96931470301541   -3.93259377457483
C         6.18159598559956   -1.42207878985294   -1.88387234426993
C         7.00063286434242   -1.50214382632873   -2.99463729642062
N         6.57205106705420   -1.49621980939141   -4.26878924491169
N         8.31169221244178   -1.68422680834685   -2.72545986660995
C         8.51374418942371   -1.85382304112564   -1.43971389242183
S         7.13389263693718   -1.60943870083901   -0.45335610540480
H         2.76116181174731    1.80467446974210    2.67281637628245
H         2.34405633972569    0.07088313360528    2.46992510713393
H         1.41731534638553    1.40691203296021    1.66228374565408
H         4.33393204357979    0.57066277604314    1.36868340661513
H         4.01850508645435    2.91716135430825    0.64899429905364
H         2.54468826650988    2.63595956150432   -0.11767445283310
H         5.32858563685798    2.57428557737384   -1.31395422623250
H         3.76839177687767    2.79554547450130   -2.19347966471409
H         4.92614086873810    0.48994300458023   -0.68829212174372
H         2.06318002376707   -0.72615687612040    0.17788203773407
H         3.60495549648399   -2.37818363392928   -0.56751412223677
H         4.85995825044580   -1.49308136375241    0.37001866737022
H         5.65739259947578   -1.13616430536992   -4.52770377753076
H         7.31468035494321   -1.46043906652277   -4.96125116784120
H         9.52020831035976   -1.90972905797243   -1.04690878866517
