32
 energy: -49.228081138792 gnorm: 0.286364770556 xtb: 6.4.1 (79825abcba525fcdf90b791dcacef51065a7a4e7)
C         2.05884715129843    1.37436684190098    1.73260967597903
C         3.26342171157477    1.05520712147378    0.80829724514203
C         3.53616569105976    2.25517190556399   -0.15640089067571
C         4.48996324323889    2.18341990065678   -1.41911520906732
C         4.43093804306741    0.54864446280264   -1.41254665439742
O         2.99908673416507    0.22085614583784   -1.37410875757869
C         3.03426158524090   -0.22101308485049    0.01091362957774
C         4.10276241554695   -1.32673231078119   -0.16296384807283
C         4.86347467878580   -1.08660738108542   -1.50235731333443
C         4.07909837763586   -1.66796747611492   -2.66733135934688
N         3.64445968054870   -2.33389311782028   -3.64593873651711
C         6.25504837167810   -1.43925556437208   -1.82996723940331
C         6.96839943189683   -1.25135464525817   -2.99909259673268
N         6.45702316684886   -0.53826895557727   -4.01751478424195
N         8.22273733347366   -1.75058916151179   -2.95563416708640
C         8.53792167714810   -2.19773112463355   -1.76254846799684
S         7.24757205195841   -2.19756723834772   -0.63489004724426
H         2.13190512860233    2.37818581939147    2.16974584259117
H         1.97790647636308    0.62394870063190    2.52950464986119
H         1.15867260201048    1.32786917477750    1.10434159409502
H         4.17387635027706    0.96786596782356    1.40125666774466
H         3.95738693465778    3.06382642721760    0.44873300976443
H         2.54183730525759    2.57777861232170   -0.51513792120608
H         5.52433863296414    2.48082012345952   -1.20616247137737
H         4.11747964560297    2.65210132939684   -2.34423586857926
H         4.92757922362431    0.62387290351574   -0.42476959778993
H         2.08947914738552   -0.68134513482781    0.32957433609679
H         3.58733596826118   -2.28846740034770   -0.24975106960468
H         4.82865133638017   -1.28959352128618    0.65892033111713
H         5.44243909300288   -0.58838190545570   -3.98030365821820
H         6.89023133354636   -0.67384674533524   -4.92648749164398
H         9.43843469821759   -2.77899709424764   -1.61558748825890
