32
 energy: -49.229044471822 gnorm: 0.288509894916 xtb: 6.4.1 (79825abcba525fcdf90b791dcacef51065a7a4e7)
C         2.48372004475406    1.13500601239313    1.97184165299890
C         3.39170851421340    0.90262467548180    0.73540640424096
C         3.55150850459395    2.24015769352596   -0.05858140790345
C         4.38040558727510    2.21766323003207   -1.40830330371402
C         4.40577363491815    0.58245859174021   -1.44677547141090
O         2.96003522506715    0.32430784079075   -1.39861461530141
C         3.00280603846052   -0.31398499284020   -0.09265687535533
C         4.01140029425638   -1.44996918887428   -0.38730913349861
C         4.75280894199230   -1.05590166388190   -1.70083188441581
C         3.90959203322006   -1.53933270391906   -2.86945070168455
N         3.32874660158502   -1.86977268173022   -3.93878140777784
C         6.14830587873783   -1.50365993211202   -1.84319482560841
C         6.92977844560123   -1.49773900000176   -2.98350012421816
N         6.65535635024406   -1.32509559282834   -4.28813317829015
N         8.24122318759466   -1.73014414371081   -2.75858267270833
C         8.48282881983178   -1.88897669569745   -1.47829773038186
S         7.14972240234810   -1.61046574509469   -0.43816570580710
H         2.98615896682190    1.84180878664968    2.64419796056418
H         2.34787398020065    0.23357737151483    2.58314569494707
H         1.48034735886274    1.44403734605923    1.64789733184054
H         4.30423110684339    0.54053712634437    1.20906464614719
H         4.08972869095392    2.93084236841792    0.59777994065538
H         2.54627165885404    2.60086963370242   -0.34290879574705
H         5.36470772623630    2.69137205072895   -1.30594385429587
H         3.84097411833555    2.69553380289202   -2.24191469620193
H         4.89178552172928    0.51658587168023   -0.45306096409560
H         1.96995846609228   -0.64651872863204    0.07678723191330
H         3.53594929049429   -2.42697177836335   -0.51975955922099
H         4.69979550379517   -1.52372316188256    0.46384303353585
H         5.72214685943229   -1.54317179188206   -4.62701314528737
H         7.35733008787090   -1.72056521404654   -4.90709899989394
H         9.44662399078730   -2.10579273530486   -1.03729769297968
