32
 energy: -49.226197057316 gnorm: 0.279281014387 xtb: 6.4.1 (79825abcba525fcdf90b791dcacef51065a7a4e7)
C         2.81930712098334    0.70612100219535    2.14187189440415
C         3.61316020668624    0.68612308748465    0.80897518663676
C         3.68728768213331    2.13431486238050    0.22400257245553
C         4.30803692660371    2.29652722056529   -1.22433547399778
C         4.34925800288645    0.69163909511753   -1.53842588400114
O         2.90120624408952    0.45696206523653   -1.45361062747754
C         3.03961279335792   -0.28674794403142   -0.21163166163558
C         3.93277167081167   -1.44153343659947   -0.72473994288796
C         4.66213042344293   -0.90910488684736   -1.99551673923339
C         3.89935631368363   -1.22835934002549   -3.27091569224882
N         3.33605917006230   -1.39523909150057   -4.38666101099886
C         6.07294257516477   -1.32655583533641   -1.93627023999972
C         6.90913710429998   -1.95538522461928   -2.83980934110785
N         6.62809819066930   -2.54234084201316   -4.01610899197633
N         8.20517727313905   -2.00568589222067   -2.46266607735737
C         8.36375481019497   -1.57888620319805   -1.23163976397407
S         6.98678331371345   -0.80803493250616   -0.56354282952559
H         3.15803332114658    1.41355107552622    2.90926051110605
H         2.69216563168914   -0.32816057396122    2.48657037526953
H         1.79866611825439    1.08399778294444    1.99121294999638
H         4.61511172859107    0.41422833015059    1.14112484253620
H         4.27088488930581    2.69955640753015    0.95711429965129
H         2.65965432597118    2.53028277949645    0.13107584072039
H         5.33858269771506    2.67263174108756   -1.20855536256029
H         3.60814723312729    2.90445577444099   -1.82001310334801
H         4.99551328312937    0.44822502654222   -0.67175466593171
H         2.07858433891952   -0.63827335183812    0.18701391771528
H         3.30922042718559   -2.29913047423744   -0.99647879079802
H         4.71137915372588   -1.76016651316477   -0.02044527666737
H         5.72997851326671   -2.54516686117527   -4.49218657932196
H         7.42408908508137   -2.83853106746546   -4.57373958787004
H         9.31248576659693   -1.50583756232191   -0.71689242048044
