32
 energy: -49.229400996232 gnorm: 0.282851486321 xtb: 6.4.1 (79825abcba525fcdf90b791dcacef51065a7a4e7)
C         2.16742093901834    0.71550067944134    1.84948866246124
C         3.38583142188285    0.64473553940040    0.89153017651596
C         3.69744991125773    2.09173980426584    0.38752637677624
C         4.55525136143658    2.23828696758377   -0.93611487710859
C         4.48476682921037    0.65210879462790   -1.32992775903522
O         3.02263395729585    0.52467319914953   -1.40098027583804
C         3.03135040619338   -0.32885118523112   -0.22361336207817
C         3.95329557182069   -1.47546218529374   -0.70303253134554
C         4.79738585680214   -0.91620198241284   -1.88838379226715
C         4.01088089657189   -1.05387818897794   -3.18176905839529
N         3.30440944180789   -1.09080647953925   -4.22559592317643
C         6.21984196795021   -1.28418813233033   -1.98518849622323
C         6.89307871136594   -2.10060526107676   -2.87470856087381
N         6.31028116266125   -2.78304553337002   -3.87560961732541
N         8.20441607118429   -2.24923715309922   -2.58697569986390
C         8.57396878316789   -1.53788719419265   -1.54767659954414
S         7.30820031017202   -0.66133164676042   -0.79528292514696
H         2.18328504711060    1.54252654152823    2.57049808660181
H         2.10405414602919   -0.22406298470067    2.41333717952004
H         1.36354981494497    0.95982111042766    1.14146622037016
H         4.29082628196343    0.35689767680938    1.42659154849315
H         4.22545313806764    2.57471679921945    1.21546497551967
H         2.79675656050292    2.71823170072436    0.25442613656670
H         5.54238416033467    2.68591200689304   -0.76603000618191
H         3.95623062262610    2.91197696546249   -1.56981077263765
H         4.94834026494844    0.44342924677431   -0.34526141608452
H         2.02510157924515   -0.73261956358025   -0.04897518369775
H         3.39166886704482   -2.39303448032985   -0.90494179860313
H         4.70538057449338   -1.79167878537220    0.03056329433756
H         5.40755915947561   -2.45710826490983   -4.21047480731283
H         6.99997178629829   -3.21250833577141   -4.48566746846730
H         9.58447814674611   -1.51904331756988   -1.16179178218840
