32
 energy: -49.228547787931 gnorm: 0.287364697228 xtb: 6.4.1 (79825abcba525fcdf90b791dcacef51065a7a4e7)
C         2.61368468261351    1.24664840028910    1.84924738706467
C         3.60305498708145    0.93218578227163    0.69621836210412
C         3.81049410251707    2.17588243416749   -0.22851668457227
C         4.28904955594676    1.98726191763436   -1.72675983871506
C         4.30342628138180    0.35390258490833   -1.63760565029579
O         2.87297934970511    0.17795607275675   -1.35127501901420
C         3.11095110805678   -0.32463199467324   -0.00756843747313
C         3.97345058702408   -1.56253537918162   -0.35141763768760
C         4.67637942560071   -1.29648207368365   -1.71722314605525
C         3.84538558901705   -1.92428458205795   -2.82433809003566
N         3.16098036468553   -2.33478407325677   -3.80061663583746
C         6.12906651076736   -1.51096037199734   -1.82615278455624
C         6.96615506642761   -1.02123736552689   -2.81128462315324
N         6.55577102775143   -0.42780237241672   -3.94556875633069
N         8.28690043319940   -1.11788754754249   -2.54524376629254
C         8.47166635259224   -1.63669326233263   -1.35384426130831
S         7.06441604967672   -2.14070876076542   -0.51585222079467
H         3.11096176144753    1.92841643440861    2.55066444614170
H         2.37144132921030    0.32557694012713    2.39483505410129
H         1.70327685652990    1.73295898549711    1.47260878050133
H         4.52032732339621    0.61081507329558    1.18966474512314
H         4.53061712754082    2.86666047964015    0.22068820082780
H         2.76725131404518    2.51644656133835   -0.35934803935941
H         5.27391002238580    2.33540999519418   -2.06227584021451
H         3.50617030590428    2.30868218861912   -2.43248191084570
H         5.00001919037770    0.32836509297517   -0.77614093727447
H         2.17561142736388   -0.68588873481516    0.44042413837607
H         3.29651906284805   -2.42256196343010   -0.33564384113041
H         4.73017558191945   -1.75718752015912    0.41881962842978
H         5.59768973921453   -0.23991693823748   -4.22851065900720
H         7.29840259626015   -0.13390125699530   -4.57358350528430
H         9.48248354022513   -1.77820329266330   -0.99521508748396
