32
 energy: -49.231729294440 gnorm: 0.276726576527 xtb: 6.4.1 (79825abcba525fcdf90b791dcacef51065a7a4e7)
C         2.27224990298864    0.96869773483492    1.94054746590513
C         3.39160536175704    0.86873570609306    0.87084319814612
C         3.56439447367009    2.20864765738961    0.08361569500256
C         4.24344794767948    2.33741633376615   -1.34173709556567
C         4.42386166153698    0.71569413451659   -1.45786565676532
O         2.98344171166909    0.46112584252420   -1.31820112606284
C         3.03703516858258   -0.27707838166318   -0.06642040821116
C         4.10503665103464   -1.33120084643472   -0.44423130808980
C         4.82049727395300   -0.90286767250019   -1.76141192943439
C         4.01504989149734   -1.39562001906135   -2.95256258580394
N         3.47454204350916   -1.80545692360031   -4.01554194693004
C         6.23295745434003   -1.29665348368682   -1.89578202168657
C         6.94000823218228   -1.71428059184698   -3.00785098818229
N         6.52773466892989   -1.60289811315380   -4.28252941319930
N         8.20645785698398   -2.11967988033520   -2.77069265165663
C         8.47962511446795   -2.09888596743193   -1.48707360589106
S         7.24457682830674   -1.43638576323199   -0.50098795710294
H         2.35927280697644    1.89132964709659    2.52813184709757
H         2.41202444506531    0.03755471074105    2.50460076661626
H         1.31526825860378    0.99759855278127    1.40152250322839
H         4.26684797088978    0.64828343513675    1.48199635012998
H         4.06897280903689    2.86509023028090    0.79917167518419
H         2.53573217293909    2.57441037685797   -0.08822081989760
H         5.21379268775756    2.84611378926596   -1.28354613488493
H         3.59186481378814    2.80507975586969   -2.09737251562295
H         5.05131392654393    0.62615106638070   -0.54885466231477
H         2.10218703498733   -0.79542814663483    0.18544579957327
H         3.59614883436605   -2.29001598878695   -0.58507711324630
H         4.83530755824918   -1.45106591231253    0.36578374736098
H         5.58525245464670   -1.35689260628468   -4.57319309740737
H         7.18164830940728   -2.10503426364720   -4.87627875032200
H         9.44675448723340   -2.35933361964857   -1.07814921790995
