32
 energy: -49.227242117806 gnorm: 0.277069495983 xtb: 6.4.1 (79825abcba525fcdf90b791dcacef51065a7a4e7)
C         2.64487273916441    0.73633701497746    2.12359974513566
C         3.51184207368134    0.63189240245822    0.84115217665501
C         3.59492246197845    2.10233513256005    0.31594452029775
C         4.36354902198518    2.32025006246348   -1.05191945672739
C         4.41515258390514    0.73286762665349   -1.44380197753172
O         2.96731139134219    0.49099908057843   -1.37764823693950
C         3.02319562916125   -0.36313856383396   -0.20202136666192
C         3.92339796150836   -1.47802007800844   -0.78615952361291
C         4.70861746398470   -0.84805644907798   -1.97649315688874
C         4.01618044243867   -1.04871423530440   -3.31464772358667
N         3.60189226148762   -1.29186151264585   -4.48053143809338
C         6.10389190889425   -1.31845622691815   -1.98647400072209
C         6.88136868595149   -2.09049567474597   -2.82939483428188
N         6.43862053552990   -2.80943129678661   -3.87547622474480
N         8.19730116240087   -2.08318229925837   -2.52483689227260
C         8.42747858655519   -1.50931675915015   -1.36706865705196
S         7.07510648136892   -0.69612312102714   -0.69892084985284
H         3.03995288991249    1.47619597818502    2.83112955033709
H         2.56966915168043   -0.20877418697688    2.67661838457205
H         1.65334875877709    1.13932660113426    1.87525195502877
H         4.50018941971039    0.40382757334069    1.24029245423031
H         3.98975152981391    2.61691647805699    1.19733691495270
H         2.55524010742926    2.34708590967835    0.03201857610411
H         5.34937955006156    2.77641163086593   -0.89770209632175
H         3.81693596529740    2.90011005711159   -1.81299179132786
H         5.02286321021803    0.41701601324018   -0.57262986629158
H         2.01939734968356   -0.73127885290922    0.04882886732582
H         3.35940466510216   -2.32571900399889   -1.18796659628255
H         4.58129687264574   -1.84491593733408    0.01155224844545
H         5.59468440267780   -2.49657964588300   -4.34788755120089
H         7.17469488702725   -3.22938081243295   -4.43593941557071
H         9.39044041119457   -1.41540117735199   -0.88304825912111
