32
 energy: -49.228967499180 gnorm: 0.272439417667 xtb: 6.4.1 (79825abcba525fcdf90b791dcacef51065a7a4e7)
C         2.34752321927811    0.94060490408210    1.91249384417193
C         3.50043718807220    0.69698422356723    0.90320963555181
C         3.78146657343061    2.07135955567677    0.21251275188898
C         4.65954039071427    2.11143645114905   -1.10532858228379
C         4.41080739966021    0.54173435950223   -1.49286581152668
O         2.95555760359922    0.42034340490189   -1.32966933370988
C         3.05213691452636   -0.35399773116379   -0.10254222480750
C         3.87705999407702   -1.55319876583104   -0.62786231693815
C         4.68744839927041   -1.08519188602262   -1.87468154258299
C         4.01076704201220   -1.49531167001584   -3.17248519865758
N         3.28087581544599   -1.68144919848868   -4.18374765305084
C         6.14064237956682   -1.32228675553167   -1.88808440563229
C         6.91106647510817   -1.74342856424824   -2.95584696643860
N         6.50278104295272   -2.00065266895661   -4.21056581911545
N         8.21386066346039   -1.89625093602867   -2.63357388252110
C         8.46734835891011   -1.47990856139498   -1.41491330283058
S         7.12487185996800   -0.87257478951757   -0.53997431251588
H         2.58817561381611    1.81744805921867    2.52674993281496
H         2.18319280117062    0.06478003049640    2.55331104408206
H         1.38578434398110    1.09070887366869    1.40286243922066
H         4.36433814602362    0.29903124290669    1.43562447654898
H         4.26906039991276    2.79530183764469    0.87258573325298
H         2.78601091132055    2.53040791677126    0.07180415441990
H         5.71715424488025    2.32678192781640   -0.90833247061192
H         4.32229054744154    2.79293758886982   -1.90287061382930
H         4.93785082354432    0.40490750232258   -0.52771352421860
H         2.06960907690560   -0.71653904793026    0.22801327597321
H         3.15593913774623   -2.32307365406555   -0.92010912133111
H         4.56973741086527   -2.01232033026718    0.08851258715832
H         5.52167487826553   -1.87896249820913   -4.44699553077665
H         7.07389826304659   -2.55720858148820   -4.84013127963627
H         9.46611072025151   -1.61720864783249   -1.02246739441454
