32
 energy: -49.227124951730 gnorm: 0.283166119923 xtb: 6.4.1 (79825abcba525fcdf90b791dcacef51065a7a4e7)
C         2.29589519889567    1.38994809397797    1.76429391030708
C         3.39515847814008    1.06073904005672    0.72004398222907
C         3.38886240995224    2.30002629274440   -0.23341011706671
C         4.23847466287266    2.19932846340762   -1.56658097353643
C         4.36584086974226    0.56908582448038   -1.52070487228329
O         2.97671413303704    0.11502156185932   -1.36814870612129
C         3.07440896242827   -0.25949565858812    0.03362348403135
C         4.18701873536796   -1.31272594193396   -0.18397218313453
C         4.81483658957850   -1.06277241933577   -1.58885152569090
C         4.04797508361113   -1.73442575633737   -2.71632457324208
N         3.64711537233649   -2.41453784186616   -3.69958404446590
C         6.20965995985585   -1.50744284873533   -1.74665620044895
C         6.96401549860510   -1.08747512287075   -2.82628828274209
N         6.52102424239231   -0.19661934272442   -3.73034324169928
N         8.23416181400365   -1.54676889006420   -2.84256366193368
C         8.47699336921188   -2.31533452042834   -1.80667259598999
S         7.19373846487974   -2.44481403333799   -0.67835189528630
H         2.53028509661228    2.34911755260830    2.24297267723489
H         2.35468731666250    0.57601581307384    2.49830897067351
H         1.29570896001748    1.41976494409748    1.31049276661297
H         4.33697040625164    0.94796302863313    1.25709972090238
H         3.75264517767969    3.17587775622558    0.31255949714338
H         2.34224700944926    2.48430729820578   -0.53687839660798
H         5.28997410059891    2.51204423924560   -1.54966991828520
H         3.73490973622050    2.61034639772656   -2.45637935739496
H         4.91940640874129    0.52846645603480   -0.56157476719236
H         2.10955147041128   -0.65857237672375    0.37399370816962
H         3.76373468418011   -2.29662671798038    0.04163964167041
H         5.02665087773570   -1.24574118435671    0.51910571431218
H         5.51873351733946   -0.29796355674287   -3.86606159777863
H         7.11415676563247   -0.18408497483970   -4.55515760801631
H         9.42942507581054   -2.78759898206083   -1.60609472764906
