32
 energy: -49.228789812852 gnorm: 0.283340301700 xtb: 6.4.1 (79825abcba525fcdf90b791dcacef51065a7a4e7)
C         2.16774747303501    0.26698646543367    1.90351259524659
C         3.32443554202821    0.38939059855092    0.87671845486324
C         3.61250276685665    1.90678493427239    0.63283537777847
C         4.48331653231918    2.29264052548852   -0.63291515558868
C         4.49308962024155    0.78899303099728   -1.27709412318713
O         3.03144124797923    0.65623183317824   -1.34836352369677
C         3.00691035335800   -0.42118376109650   -0.37196884362727
C         3.93215017900491   -1.48374562160282   -1.01184067853538
C         4.80447583575967   -0.69386236819129   -2.03431335574018
C         4.25777526448594   -0.61195368288838   -3.45022284943026
N         4.00540331894205   -0.26942984040156   -4.63724684272560
C         6.21709632782946   -1.09054615928031   -2.15805367592608
C         6.65659450319300   -2.39993783827705   -2.21606560717926
N         5.89408729038786   -3.47009649290267   -2.49983284223713
N         7.98560086876960   -2.56871011209784   -2.04359731019621
C         8.54616571750098   -1.43184170092819   -1.70296868572118
S         7.56056655178217   -0.04044587403940   -1.87392960221724
H         2.31538150766368    0.92210732720547    2.77132529619449
H         2.10663257304853   -0.73338737793600    2.35099166882375
H         1.18926955403592    0.42825912965123    1.43047018247832
H         4.18283216770573   -0.04172535848152    1.39193808471352
H         4.08984418435726    2.25889441141097    1.55245518741994
H         2.65079396967944    2.42365177003505    0.46130944604347
H         5.52299959774579    2.58014425720219   -0.43259308350429
H         4.01340977028703    3.02516371788933   -1.30882339962945
H         5.00055059763068    0.40440058168966   -0.37012813768137
H         1.96476498598020   -0.74263298945499   -0.24286608351827
H         3.35680050810409   -2.23377921756356   -1.56370405564352
H         4.53859665599749   -2.02378827550876   -0.27403025766915
H         5.03367895530919   -3.28891856926270   -3.00988075422184
H         6.46808525347147   -4.24780121824384   -2.81285638373131
H         9.60760479176241   -1.32108545886563   -1.52556658419763
