32
 energy: -49.232659464638 gnorm: 0.276725256768 xtb: 6.4.1 (79825abcba525fcdf90b791dcacef51065a7a4e7)
C         2.31265122176907    0.92976233066086    1.89266757913463
C         3.47528707251578    0.83529545559081    0.86964746244282
C         3.72099294436272    2.20483036903697    0.15624014438831
C         4.61748557935017    2.19235393341459   -1.14969663164046
C         4.50442810903153    0.57822288202252   -1.39014790851920
O         3.04067415614753    0.45378187636675   -1.35759595074188
C         3.06870393754490   -0.26893384268655   -0.09598229252936
C         3.89513762527728   -1.48953666406940   -0.56680978471816
C         4.70378593032356   -1.04696290859988   -1.82400284423105
C         3.92157279130303   -1.32783825168663   -3.09665436172388
N         3.25085385862478   -1.82799972888115   -4.04006029268383
C         6.12943086646687   -1.40673446354493   -1.90316916039174
C         6.91463446156030   -1.74947035329721   -2.98807377282120
N         6.48328817824970   -2.01581192021373   -4.23313729969144
N         8.22137781171611   -1.92031962427670   -2.69189872750172
C         8.50548134230443   -1.54487756581460   -1.46672158246957
S         7.13506791456715   -1.13252864547346   -0.52409169678971
H         2.61856025125895    1.66500212146974    2.64759814038969
H         2.06528897270335   -0.06175683463377    2.29319478446551
H         1.48386389954962    1.33859485248975    1.29839106169186
H         4.40020577400997    0.63489024517709    1.41049878295996
H         4.09201725532161    2.88145535734519    0.93216288149069
H         2.69825053501911    2.54118822232888   -0.09339487226429
H         5.68023076592330    2.38283280007640   -0.95471283780983
H         4.20030545445599    2.85623791633857   -1.92395327364199
H         4.99595930324736    0.38436021698625   -0.41606903916397
H         2.08235558111343   -0.65041753676095    0.20007717820070
H         3.22905531236493   -2.30713413925226   -0.86006658551798
H         4.60476697848287   -1.83622986520751    0.19477909835986
H         5.51210632921253   -2.09182182605139   -4.52349073895765
H         7.20331631988721   -2.23708643315071   -4.91495772967485
H         9.49958278639076   -1.61599011764666   -1.04589301627605
