32
 energy: -49.226950811676 gnorm: 0.283714168939 xtb: 6.4.1 (79825abcba525fcdf90b791dcacef51065a7a4e7)
C         2.34674219179120    0.79500366249501    1.98026439032757
C         3.47354458327640    0.63371140482117    0.92597911205830
C         3.77805144543557    2.04918962799926    0.33551808486826
C         4.46869670877114    2.27836904810554   -1.07153965445453
C         4.43719928873339    0.67370093083665   -1.38787172212151
O         2.98243104204370    0.48143364427926   -1.31169124004718
C         2.98821728964582   -0.35659215387559   -0.12322500970134
C         3.90946200974625   -1.48359411097292   -0.64831277473405
C         4.69107088480850   -0.92790176464973   -1.87738216579040
C         4.03650016309609   -1.25426744159846   -3.20982834613071
N         3.51464865463670   -1.56785991530994   -4.31407962494053
C         6.10168960540673   -1.34488371826082   -1.94406962195976
C         6.88067196658907   -1.88675651337489   -2.94935114328878
N         6.45743978958002   -2.58905981818492   -4.01463290142496
N         8.18781520266300   -2.00851819680265   -2.63148645101141
C         8.46989567467292   -1.48581483042487   -1.46104107066978
S         7.13698906617745   -0.71025556590184   -0.71372353690329
H         2.71181420700338    1.58679910431718    2.64649290858076
H         2.04658701917235   -0.12783939380898    2.49308789301705
H         1.51997224452873    1.24959493321476    1.41724106378414
H         4.32804097098337    0.26327598037690    1.49234517943847
H         4.35431645962047    2.59227021798154    1.09084491090575
H         2.78934345904200    2.52470037397451    0.20209270808962
H         5.47249804992985    2.71602151164670   -1.00392761827976
H         3.80691959780177    2.80420899545020   -1.77850355199166
H         4.99838005493138    0.33097893028170   -0.49588905761079
H         1.98874567806930   -0.74426743971570    0.11516220897932
H         3.46785815537872   -2.42385042603343   -0.99332716058788
H         4.67379449163850   -1.81896600147301    0.06380320834748
H         5.68374920718241   -2.19834537964895   -4.54569026607049
H         7.19268068174872   -2.94250235032547   -4.62025757289898
H         9.39709729752175   -1.36991542050475   -0.91582933724771
