32
 energy: -49.231845686986 gnorm: 0.281309143174 xtb: 6.4.1 (79825abcba525fcdf90b791dcacef51065a7a4e7)
C         2.35364966808599    0.92024138616618    1.99590147996546
C         3.40681978400496    0.74490585622847    0.87015442679528
C         3.76247141516376    2.12885594392614    0.23522031561334
C         4.40768324129194    2.22330158546117   -1.20842343771158
C         4.43375047218159    0.61573142459905   -1.51017919183864
O         2.97945503954812    0.46319376801521   -1.36568735954917
C         3.00300392045356   -0.31951642840043   -0.14029644271076
C         3.95717795791768   -1.47096182214114   -0.53812533085472
C         4.71815541508713   -1.02445903684796   -1.82337494279301
C         3.98224221443092   -1.23641510155808   -3.13634738425543
N         3.38409440032591   -1.47569697198120   -4.22032317781571
C         6.13249686900951   -1.42281809847790   -1.91884571227107
C         6.90867052320266   -1.89529003183300   -2.96064958864105
N         6.54752551813879   -2.30497192754927   -4.18902886948763
N         8.22619610148789   -1.91502710326809   -2.66362414847890
C         8.49556071895503   -1.57612110520281   -1.42454545098610
S         7.12757684645460   -0.99503796505614   -0.57156350221575
H         2.68055744250370    1.69385355222770    2.70211218475541
H         2.34295276319758    0.04723585021823    2.66108362770631
H         1.35058318738148    1.05849244676187    1.56935568607422
H         4.33775906640587    0.45173179814322    1.35549763324001
H         4.46922439890439    2.68817961124609    0.85586011712725
H         2.79473919552588    2.66250895340347    0.24806939253659
H         5.42940601524473    2.62292639648489   -1.19789770552608
H         3.77421878136847    2.79603183028263   -1.90481226054609
H         4.90474967240952    0.50803388670272   -0.51289473475547
H         2.01302714224123   -0.73072481972224    0.09827793827482
H         3.39123421689473   -2.38335869026769   -0.75112876909766
H         4.71877561232024   -1.74394205354841    0.20298088799673
H         5.56603622373211   -2.36836039018872   -4.44581181001568
H         7.30289825269652   -2.59327546816487   -4.80431346445356
H         9.51053224584488   -1.54808866557350   -1.05113101645677
