32
 energy: -49.232354239848 gnorm: 0.275289396707 xtb: 6.4.1 (79825abcba525fcdf90b791dcacef51065a7a4e7)
C         2.19015796694741    0.95884839397759    1.81545454186330
C         3.38549420331920    0.91394789443284    0.82733941720161
C         3.50664263827690    2.29732715692505    0.10863772003162
C         4.32231642577930    2.34354800910361   -1.24851572444488
C         4.41741124079358    0.72412697831419   -1.45934825499786
O         2.99025404191533    0.38821439087884   -1.36185008400150
C         3.07318376493668   -0.27504247856265   -0.07034488158445
C         4.19909492432195   -1.30262265248864   -0.33670078677121
C         4.83488709359464   -0.89948652778620   -1.70182627184467
C         3.92151533766384   -1.36677585858425   -2.82333551198963
N         3.52149050771515   -1.78837341561454   -3.94238680120476
C         6.24605352972409   -1.26662442549720   -1.90672970125170
C         6.93912071204022   -1.63721465463672   -3.04398576569845
N         6.49159806246474   -1.74411207746872   -4.30710771266271
N         8.19574686319823   -2.07705691619222   -2.81613314773394
C         8.50828187563930   -2.06432711475172   -1.54142125470338
S         7.23812993960247   -1.53971857349806   -0.51764606736924
H         2.30520558068440    1.71020372988844    2.60685029771455
H         2.11532226965417   -0.01713991464843    2.31200949328506
H         1.25526986847235    1.12667737146556    1.26317317049865
H         4.26921294684969    0.73830152820389    1.44081031391011
H         3.89349137948276    2.98783086351009    0.86434215323841
H         2.49017079642268    2.62779150403861   -0.17249319737405
H         5.32562306310485    2.78749057841701   -1.25287378859463
H         3.76572735130091    2.82099969620067   -2.07101377229297
H         4.96159937545887    0.63976131701004   -0.49770538669366
H         2.15506565771843   -0.83675737363884    0.14782848498891
H         3.77028283668934   -2.30790127225079   -0.39724764434051
H         4.98476466476336   -1.32497396706979    0.42881283166474
H         5.61091109059921   -1.33003052387550   -4.60071244048975
H         7.22468448950986   -1.88045473438128   -4.99723596578109
H         9.40391413043597   -2.43279507625007   -1.05927440622000
