32
 energy: -49.229474191652 gnorm: 0.283522270467 xtb: 6.4.1 (79825abcba525fcdf90b791dcacef51065a7a4e7)
C         2.68236312930244    1.15107768792950    2.03493466742760
C         3.44290253851617    0.92874275388029    0.70100691347720
C         3.41333584835509    2.21016730311651   -0.19455111961345
C         4.27154562826530    2.17648291419051   -1.52559090250529
C         4.29937291233771    0.54172903504266   -1.57872503008009
O         2.87695294715819    0.20904499858433   -1.42009464585062
C         3.03148224252045   -0.31588849747412   -0.07274976709341
C         4.04372694454790   -1.45158363839309   -0.35576853904019
C         4.76117033777536   -1.08416402681270   -1.69015821266960
C         3.99086394733415   -1.65579521663332   -2.86924942736892
N         3.38019279125382   -1.94388815277855   -3.93420169974781
C         6.18934644217387   -1.42021743855360   -1.81484767074259
C         6.98314048256949   -1.28340710633941   -2.93832643948614
N         6.53824005359740   -0.88270357146057   -4.14193805480625
N         8.28671451020780   -1.53375649291656   -2.68831193933802
C         8.48544311896187   -1.90894151964725   -1.44634828152082
S         7.09992181436188   -1.93413682979538   -0.43822546759837
H         3.13950748853050    1.96515619017035    2.61145289177094
H         2.56351113108424    0.22759545753589    2.61611893401944
H         1.64972666135299    1.48885539416925    1.87133399240482
H         4.46245002521822    0.75786437929816    1.04666643878674
H         3.79313366337509    3.02651283028196    0.42743771349148
H         2.39808220631839    2.55170932618365   -0.46670065717766
H         5.32290547731309    2.48050066352648   -1.44849432017195
H         3.76340481134174    2.66877793126782   -2.37039447145012
H         4.93758987577069    0.52829464437762   -0.67290279398640
H         2.10570130279515   -0.77160216590261    0.30317416462985
H         3.62835074556263   -2.46155268420852   -0.43030689217444
H         4.78375116804507   -1.43327328828161    0.45405644397926
H         5.69300443120545   -1.36255708628637   -4.43958577198898
H         7.29371765430920   -0.98524930164421   -4.81351828602641
H         9.41867716482322   -2.25396628657900   -1.02158542548497
