32
 energy: -49.228465079913 gnorm: 0.285187958621 xtb: 6.4.1 (79825abcba525fcdf90b791dcacef51065a7a4e7)
C         2.39527255239345    1.08672827575326    1.94218388722350
C         3.44625574670167    0.77780804616008    0.84344875757320
C         3.71544481167464    2.10838261469367    0.06752619832437
C         4.33654825386231    2.14589093220327   -1.38923363284784
C         4.42767166515911    0.52575085898430   -1.59626146002369
O         2.98761327261875    0.34581115947551   -1.36609986004495
C         3.07168504158474   -0.35907201524588   -0.09690943029916
C         3.98381086635765   -1.54684446388500   -0.48648034863768
C         4.71580595099530   -1.13112484390243   -1.79860777646182
C         3.87666002299539   -1.61253451558733   -2.97098530310639
N         3.07163169059240   -1.88321645808422   -3.90302650567126
C         6.16219271077412   -1.39875895317147   -1.86571717301061
C         7.00701596042779   -1.45425134470055   -2.95852313127248
N         6.63415825109485   -1.57759324784108   -4.24419203865562
N         8.30837161858330   -1.69958646180254   -2.69249409877508
C         8.50974777146279   -1.71936361495128   -1.39565675250399
S         7.12855964752616   -1.40152916508520   -0.43237261704421
H         2.74284931151854    1.95261897633533    2.51967997135305
H         2.33693213915226    0.19197448457256    2.57521819020842
H         1.47063959603554    1.39232662552436    1.43340045638494
H         4.31507251689745    0.54161361311572    1.45788070014465
H         4.40591617046971    2.71118009188022    0.66537317888581
H         2.73929742468344    2.61711885324663   -0.03136768811996
H         5.33338922620964    2.60107123060003   -1.44259257737332
H         3.68288413880030    2.64521144458820   -2.12248447580691
H         4.99237868629111    0.43056914624518   -0.64754563339771
H         2.04320214116981   -0.69373621911971    0.09358175402355
H         3.40172520858880   -2.45359641365522   -0.67911476160986
H         4.77968715432847   -1.83592878065187    0.21122934315910
H         5.71645324119021   -1.20884679844862   -4.47896935161408
H         7.29927041580824   -1.37942441625875   -4.98624119899894
H         9.52999870797466   -1.70208600983066   -1.03623934901125
