32
 energy: -49.231594990538 gnorm: 0.278322985305 xtb: 6.4.1 (79825abcba525fcdf90b791dcacef51065a7a4e7)
C         2.11607140003037    1.35869098178571    1.69554431157362
C         3.36206250640949    1.06431058584768    0.81915249651301
C         3.56855388337646    2.25862894947515   -0.16873019378120
C         4.36028476351089    2.09762023402604   -1.53128807209480
C         4.48937729202062    0.46813817314634   -1.46693605362931
O         3.05229675323605    0.20005910751255   -1.31843025633636
C         3.15286971179795   -0.24057312219297    0.06377849010720
C         4.11490893545975   -1.42210762175009   -0.20640508891153
C         4.81800527425308   -1.18981563775377   -1.57827022758269
C         3.94907319378211   -1.63374108959645   -2.74372184740881
N         3.26055329336808   -1.86184827343215   -3.77520020515778
C         6.22073824796311   -1.60613238446126   -1.74315478612146
C         6.89859611762707   -1.38011434039730   -2.92656306577700
N         6.50004659490456   -0.64360791606111   -3.97817953887067
N         8.21074585295995   -1.70006348911017   -2.90699439696589
C         8.58892803445541   -2.09267899971608   -1.71302543104514
S         7.33758162060584   -2.15658025787348   -0.54398117233172
H         2.10891368425795    2.39798552437188    2.04752961898435
H         2.02402212261576    0.60650633676524    2.48956293192602
H         1.26515263026050    1.19681679892266    1.01957757323566
H         4.26069600031424    0.99644008661709    1.43234776800732
H         3.95219754227959    3.09605034734882    0.42209926762039
H         2.55613083121873    2.61936991583962   -0.42626038722117
H         5.31657388408005    2.63524741734161   -1.51727622422411
H         3.72704061635592    2.42867862165779   -2.37013057358164
H         5.01133736830149    0.51571227018957   -0.49056026704537
H         2.18870429722454   -0.70140487798503    0.31692517461243
H         3.48506959574362   -2.31670788564786   -0.23992523690511
H         4.87010905580626   -1.60820030901270    0.56743591960804
H         5.50402210759117   -0.52261204339560   -4.14118884619606
H         7.18057631398767   -0.64511015458318   -4.73260586576317
H         9.58074074035585   -2.37629045451767   -1.38704466858335
