32
 energy: -49.231671346266 gnorm: 0.278214983016 xtb: 6.4.1 (79825abcba525fcdf90b791dcacef51065a7a4e7)
C         2.43884162419585    1.27804636396643    1.84913520295128
C         3.48146844035193    0.85554250306872    0.78066148835805
C         3.77740814259162    2.13168715614182   -0.07304910214657
C         4.57477703137393    2.03133172985751   -1.43813416008862
C         4.37283506678607    0.40920417794842   -1.50089978000840
O         2.91833168325348    0.22568995529622   -1.40158580355308
C         3.02032436307336   -0.32657680206876   -0.06017922004913
C         3.91416337062106   -1.53825202656689   -0.41716295182268
C         4.66129210977371   -1.24082395704584   -1.75269774004432
C         3.91344336839003   -1.69317117516819   -2.99627905144872
N         3.17632076057029   -2.00924344459957   -3.96930973616099
C         6.12004230946519   -1.43403753870240   -1.80638872527731
C         6.94341648891488   -1.36063726943823   -2.91440405174664
N         6.53480109435288   -0.93542690546317   -4.12246458369585
N         8.26780222443945   -1.52483859612459   -2.70577120854742
C         8.51724881330267   -1.68985093254510   -1.42777358702216
S         7.12464395746512   -1.72367738818549   -0.42971387821305
H         2.79519167825183    2.17259055221731    2.37533228614424
H         2.33190257486024    0.45047178094230    2.56216025763392
H         1.49719989783745    1.49957394878819    1.32814247423734
H         4.43493195007494    0.61740713197212    1.25220775736211
H         4.42719647949833    2.70148490207299    0.59824975485296
H         2.84408967485738    2.71033141972505   -0.19772362550735
H         5.62691594412180    2.32708321143319   -1.34188978716402
H         4.11267369625495    2.55522066898162   -2.29034037896893
H         4.95961526531363    0.24967162878309   -0.57447997235168
H         2.02565047753956   -0.63814204826584    0.28567487405706
H         3.19179155355396   -2.35148758390186   -0.53946467760877
H         4.56822327658173   -1.80701362310181    0.42174136750730
H         5.54029139856834   -0.88207971471048   -4.32588866792501
H         7.07423315254508   -1.40838327625893   -4.84191393294090
H         9.53000105510349   -1.74260907817633   -1.05102322815293
