32
 energy: -49.228113962921 gnorm: 0.286668201756 xtb: 6.4.1 (79825abcba525fcdf90b791dcacef51065a7a4e7)
C         2.56134562134114    1.31804029865852    1.86647305036896
C         3.55453917988286    0.89349188182045    0.75267707976342
C         3.82833327519348    2.18007451168412   -0.09271583524774
C         4.30525080370400    2.03865951999625   -1.59666963638373
C         4.35124278659610    0.40356231476510   -1.57770336373989
O         2.91180090616635    0.21032934671127   -1.35456905181643
C         3.08042921291041   -0.33195305605867   -0.01581329030362
C         3.93744594453142   -1.56649954479308   -0.38454041971707
C         4.67766380846466   -1.25244792793307   -1.72011785324881
C         3.97904901328493   -1.79469879042201   -2.95635877236952
N         3.40046244123752   -2.34790526059583   -3.93064842086127
C         6.13212188502200   -1.45083605398179   -1.83570427627606
C         6.94886436429321   -1.13285426024181   -2.90474585585121
N         6.52267368743735   -0.79617852432679   -4.13445785075141
N         8.25111738589484   -1.37493657175469   -2.64013191475263
C         8.40788626586239   -1.74884821926435   -1.39179534468774
S         7.00563099085896   -1.93369337152594   -0.42425820716258
H         2.99163270439052    2.11957134683086    2.48005192925942
H         2.50145777644057    0.47197193871217    2.56310936546928
H         1.60039659934825    1.63897067823856    1.44129343766195
H         4.44911990553629    0.61693078897874    1.31070601217096
H         4.52374253585852    2.85082815569006    0.42112462245690
H         2.86615730676417    2.72321074886134   -0.06670208156902
H         5.27467571273747    2.51048907464352   -1.79994388476330
H         3.60921526137381    2.48409897843378   -2.32562283046103
H         4.97245174656133    0.43487884039541   -0.66056978741068
H         2.15891353657904   -0.72947182297972    0.43011471434006
H         3.25942084977227   -2.41779590040832   -0.50161864412687
H         4.69306943200315   -1.95911006020778    0.30732499065757
H         5.65773053889352   -0.27288157223102   -4.24080851141858
H         7.18176974805024   -0.59398161415937   -4.88077602984077
H         9.42951687573136   -1.90529005462822   -1.07212643890185
