32
 energy: -49.233426214717 gnorm: 0.279549157234 xtb: 6.4.1 (79825abcba525fcdf90b791dcacef51065a7a4e7)
C         2.25360404901715    0.53648555220175    1.96660246988391
C         3.36610767344152    0.54353129263350    0.88516716719337
C         3.70355452175924    2.01795995132216    0.48876205843116
C         4.33267689303829    2.36858931767765   -0.92212052232695
C         4.46252568270649    0.80754887085689   -1.39361797886189
O         3.01299275520060    0.56735181422438   -1.41036604069056
C         2.96054624092921   -0.34703623767065   -0.28080127701980
C         3.97336004004423   -1.39371388330612   -0.80350246380479
C         4.80433165076483   -0.75307408136188   -1.95649198292958
C         4.09378471454623   -1.01819425404959   -3.27377121429028
N         3.55687574178146   -1.05667863309780   -4.41407285991301
C         6.21287245557076   -1.18219505168657   -1.96235200479135
C         6.81456035415516   -2.20331119229824   -2.67391654311518
N         6.20992657033534   -3.09578479597900   -3.47709117640423
N         8.14573285189483   -2.35958467613682   -2.50644805689535
C         8.59903382682677   -1.44643662918870   -1.67976222515352
S         7.42023849460599   -0.40493580481235   -0.99981127486974
H         2.54335470118972    1.07804092903599    2.87591010190905
H         2.07257827345918   -0.49554095525730    2.29351428693349
H         1.30959008925956    0.94647511488991    1.58196856941547
H         4.21003034456587    0.09968686908092    1.41332780300524
H         4.34698080812024    2.40038410239134    1.28706706952888
H         2.76678749435919    2.60408167622130    0.50838711279028
H         5.27257075373790    2.90820713802192   -0.75141510902923
H         3.56330440675297    2.88655231625537   -1.51712880486941
H         4.98767950397623    0.46560737497820   -0.47966788558031
H         1.93720299246889   -0.74529468772840   -0.26587139464110
H         3.45398787412842   -2.29119753337518   -1.15408266967915
H         4.69422414526112   -1.80435291423221   -0.08550653652232
H         5.25846745680673   -2.99138841498286   -3.81929544886779
H         6.88252037623871   -3.44706476486706   -4.15274048958690
H         9.62026106925656   -1.47009202582597   -1.32349448759847
