32
 energy: -49.231323943136 gnorm: 0.282181275727 xtb: 6.4.1 (79825abcba525fcdf90b791dcacef51065a7a4e7)
C         2.33985859952479    0.93802555402664    1.95344170525851
C         3.45445325093962    0.72980577913120    0.89441405697757
C         3.73889042430195    2.09575311469733    0.18855951880242
C         4.63820604327609    2.18615130685825   -1.11235752583867
C         4.44997785478741    0.59317628838467   -1.43332264428016
O         2.98918326101888    0.45665681709430   -1.35231389936793
C         3.01227452462942   -0.31531258771282   -0.12011962361967
C         3.94964463874863   -1.47274035410200   -0.53992988040100
C         4.66760657795762   -1.03359897801572   -1.85218119428159
C         3.78812211123696   -1.35215429770562   -3.05027126901743
N         3.27134821668935   -1.87762144078675   -4.07343751602745
C         6.10032325548537   -1.34226120722498   -1.99436740350967
C         6.95885708026523   -1.72936531679713   -3.00634599670919
N         6.67072856796865   -1.91060788680423   -4.30685117754985
N         8.25670921417587   -1.86817332984689   -2.65878379188082
C         8.46865551180837   -1.52123815848772   -1.41080729150795
S         7.03623211083485   -1.12637763197131   -0.55707193406003
H         2.58183546567421    1.81699536165989    2.56412763930796
H         2.14092420001034    0.07167408055093    2.59732104848664
H         1.38243236588228    1.13343470431889    1.45109988294679
H         4.34213156432282    0.31451901216035    1.37161539604970
H         4.21244920861555    2.79138948064588    0.88810839751081
H         2.77828250338044    2.59193127211237   -0.04056041044555
H         5.67758298441353    2.50808079562838   -0.97169770479265
H         4.19684602219701    2.81621130387253   -1.90133172353132
H         5.01423754094562    0.30911376509632   -0.52286408598737
H         1.99904231228706   -0.67451402691998    0.10437738940634
H         3.46349945892413   -2.44505064460728   -0.66801732127321
H         4.74660719359354   -1.65134733303908    0.19269407390539
H         5.70807322724228   -2.05736604802568   -4.59845630366686
H         7.40048676434477   -2.23500217856121   -4.93494619559106
H         9.47654882159321   -1.45402442215410   -1.02347700893484
