32
 energy: -49.230363982506 gnorm: 0.284771867022 xtb: 6.4.1 (79825abcba525fcdf90b791dcacef51065a7a4e7)
C         2.22768861176530    1.15381246866210    1.76586964316947
C         3.42164206838439    0.92034452816874    0.80296563139304
C         3.52394878370260    2.29393133063730    0.06287111825288
C         4.26939226696692    2.24360036685449   -1.33394897615561
C         4.38742546578247    0.61228743800525   -1.36401789102131
O         2.95038706723210    0.30993637952579   -1.31278015287287
C         3.11477091880319   -0.32596801739711   -0.01533025037714
C         4.13032708792682   -1.43275284638973   -0.38710360438941
C         4.81550275151063   -0.98855677509610   -1.71508785464800
C         3.97727808218559   -1.46143860787359   -2.89158792746732
N         3.30349889929990   -1.68018701315520   -3.93476139910029
C         6.22722920717313   -1.38376251369235   -1.85295441128796
C         6.99327289847169   -1.57299565140188   -2.98803083049203
N         6.54003092207560   -1.61290692165716   -4.25300491722909
N         8.29501010451584   -1.89309206828392   -2.82218197097832
C         8.57756572281605   -1.99156458348576   -1.54421636907055
S         7.25698585568109   -1.68210287400062   -0.49687785601732
H         2.37116100407507    2.02648222721556    2.41543965604766
H         2.10636621598248    0.28060453239020    2.41971148653698
H         1.25344884653304    1.30345252097301    1.28041957387620
H         4.33053036595722    0.77749385256297    1.38749343331684
H         4.04563252432740    3.03751840482180    0.67316682208763
H         2.49150196919676    2.64184993650919   -0.12276966879272
H         5.23848870434775    2.75561931649034   -1.38311089138530
H         3.64713842340133    2.54098831896357   -2.19337617549779
H         4.93607986247991    0.58530616669566   -0.40159093167405
H         2.12636213853065   -0.65274544856449    0.33442493831853
H         3.61285852714332   -2.39535245821139   -0.44841514494252
H         4.92327348344555   -1.61458308573491    0.34907667375069
H         5.57659570989697   -1.33886245340725   -4.42612059150757
H         7.19080757374936   -1.32622900991455   -4.97866844844512
H         9.56948187090231   -2.26324932240670   -1.20853628852725
