32
 energy: -49.229306835172 gnorm: 0.287725884644 xtb: 6.4.1 (79825abcba525fcdf90b791dcacef51065a7a4e7)
C         2.19395066783625    0.77185458428448    1.92312852114787
C         3.32639283623046    0.59475989736375    0.87745721680252
C         3.71867710153737    2.02662573999775    0.38672254284975
C         4.54140530902488    2.20787632667671   -0.95476621731927
C         4.47882122538706    0.62150219360216   -1.34912420649220
O         3.01487327884666    0.50045942560523   -1.38553696294042
C         2.94473250855010   -0.37840196154376   -0.22905279314611
C         3.87263983563445   -1.52258946227816   -0.70272500792892
C         4.76298608327252   -0.96936811009323   -1.85665208156602
C         4.07775746556887   -1.08399147637925   -3.20858162216873
N         3.44294175248490   -1.32259712641479   -4.27165100036207
C         6.21753292485141   -1.19360847489084   -1.90330096045465
C         6.86136138995727   -1.95379523135372   -2.86175367987725
N         6.29952970942065   -2.62274334279017   -3.88353361270580
N         8.19606149477615   -2.06410994592223   -2.68598788572663
C         8.59574910193450   -1.44667858101476   -1.59890052925025
S         7.36791047973527   -0.59466568286764   -0.76038873052363
H         2.48350878863634    1.67487702099788    2.47520153258708
H         2.12704583585138   -0.08192053917311    2.60965030620196
H         1.19746878036329    0.92377677161984    1.48593230472803
H         4.20809555742303    0.27423009784366    1.43245087699224
H         4.19978253890784    2.53409579398630    1.22847560109532
H         2.80292576742975    2.58082424644057    0.11155024512833
H         5.58958043600899    2.50967419903290   -0.83654963968770
H         4.01127959393505    2.76403421797164   -1.74464575403685
H         4.96474711318790    0.31645006145795   -0.40105536746819
H         1.87808325860929   -0.61137958648463   -0.11054160975995
H         3.29265826547600   -2.32500340395737   -1.16950555210450
H         4.54721543330564   -2.02504577451221    0.00174148386438
H         5.33253205601267   -2.93054880633606   -3.82481266215102
H         6.91926060165712   -3.26165408876712   -4.37344045872225
H         9.64108484421130   -1.40117685653866   -1.32395664710497
