32
 energy: -49.200840720582 gnorm: 0.289842588227 xtb: 6.4.1 (79825abcba525fcdf90b791dcacef51065a7a4e7)
C         2.12265824839958    1.37264685833462    1.62978472464221
C         3.23543397016935    1.01727327018901    0.60867940451267
C         3.56814276352326    2.19000040641211   -0.37058724807287
C         4.38715004450952    2.00537102611990   -1.71389087678292
C         4.44557787198934    0.39013354926110   -1.46167675781636
O         3.03397048350392   -0.00867843675315   -1.37545372088752
C         2.99908468760615   -0.37161943751121    0.03232094555754
C         4.18744009902244   -1.36260644309830    0.04960037181184
C         4.86196718939873   -1.24804059582409   -1.35118720802378
C         3.95826364850917   -1.72661267300922   -2.47576665738067
N         3.40857788358976   -1.93954562517691   -3.59046180332018
C         6.28320201431182   -1.52086211401512   -1.62289725270687
C         6.84309433027176   -1.07593286551094   -2.80593958842221
N         6.37659025458946   -0.17307158618811   -3.68593737429072
N         8.16472698559582   -1.33805915910621   -2.90114596694569
C         8.61960463464161   -1.99146851383383   -1.85765512649352
S         7.40470855630993   -2.52528800331881   -0.77336735578191
H         2.30965576055771    2.28114104329536    2.21608522972324
H         2.03371272005149    0.49682982129078    2.28534066430700
H         1.11514011577922    1.52950534039534    1.22051749721279
H         4.05349549131195    1.09838631372164    1.32446779870027
H         3.90200079124740    3.06043463986413    0.20249177870919
H         2.58528401445816    2.49300426720025   -0.77510377893716
H         5.37297097809249    2.47452176042478   -1.82243987295318
H         3.79940245814369    2.21665135115160   -2.62172784128795
H         5.00974648134263    0.64683576738424   -0.54307290138931
H         2.03524750307474   -0.78459946213989    0.35870948088149
H         3.85575284293649   -2.34699238420606    0.39470716399243
H         4.84433763579635   -0.95129204130575    0.82619145269715
H         5.40467889551788   -0.31880890345932   -3.94560208814585
H         7.01790772503954   -0.26552589978818   -4.46852675952168
H         9.68615882779544   -2.14843320866095   -1.76701519429215
