32
 energy: -49.228935528375 gnorm: 0.280695334674 xtb: 6.4.1 (79825abcba525fcdf90b791dcacef51065a7a4e7)
C         2.48407184329787    1.05361099730293    1.90156800499376
C         3.55996699380871    0.78310494454603    0.81690567381868
C         3.84826973782071    2.17211075570049    0.15926470695566
C         4.38820670256121    2.19018265453091   -1.32985148987930
C         4.37441407713007    0.56735089048576   -1.53538659918030
O         2.91608316793648    0.50587429457264   -1.36623455606772
C         2.99225859904551   -0.26170588194045   -0.13343664985789
C         3.92441021715414   -1.44111854638948   -0.50034474063448
C         4.65905472087498   -1.07690980703911   -1.82622839185292
C         3.92217335535757   -1.63919039181765   -3.03090122471786
N         3.32747780260159   -2.10253124937633   -4.04168932694217
C         6.08953372710855   -1.41907564972407   -1.89564540263901
C         6.95981557492872   -1.53801216882170   -2.96311634760567
N         6.57622790876613   -1.65582444469646   -4.24614456814236
N         8.26053185259266   -1.73219421319118   -2.65502899549987
C         8.43708738401702   -1.72163277786839   -1.35447250141830
S         7.02712441700283   -1.37583032466598   -0.44395572957923
H         2.85351350162713    1.80865724661185    2.60690201039062
H         2.25464967876989    0.08985946541746    2.37408132245127
H         1.56560441535858    1.42943470285057    1.43000553660005
H         4.46476705598851    0.38125890124853    1.27299076419684
H         4.61215727454482    2.63520942342871    0.79136593600403
H         2.94650586378139    2.80818503377091    0.21999123108355
H         5.45890712176754    2.42949132115771   -1.33760943435750
H         3.89526226426460    2.73298133230044   -2.15242666788031
H         4.97604302370827    0.46406104897184   -0.61051411468529
H         1.97639260550335   -0.56295221239417    0.15523449617933
H         3.38875319124846   -2.36347803752497   -0.74622144439703
H         4.62668315856367   -1.55338805407671    0.33511674716018
H         5.61043539529930   -1.45145568261476   -4.48853896837965
H         7.31567041984134   -1.69934297467712   -4.94156742294906
H         9.44463716383387   -1.76757268190855   -0.96316146710481
