32
 energy: -49.229383129629 gnorm: 0.281881343229 xtb: 6.4.1 (79825abcba525fcdf90b791dcacef51065a7a4e7)
C         2.46263267117746    1.39586909758105    1.77710338131068
C         3.45855508111982    1.08082995107740    0.62988711584685
C         3.58354163037937    2.28304159733684   -0.36208706491518
C         4.05173965767776    2.05200945309607   -1.85766064170792
C         4.31293399566512    0.45383288892635   -1.62608552016332
O         2.89346658254959    0.12730965600685   -1.43213791782617
C         3.05523424342550   -0.22942347303721   -0.03165750060057
C         4.12201477481513   -1.34501522591853   -0.14109585359066
C         4.80656735846545   -1.16365887618571   -1.52991392179694
C         4.05413817681856   -1.88913126405097   -2.63351275602311
N         3.55754081600621   -2.50167341404072   -3.61749614951995
C         6.25088767851097   -1.42957221319941   -1.63666251585791
C         7.02355095306706   -0.87323966900950   -2.63891805830711
N         6.54808772790954    0.04831658342348   -3.49440005085843
N         8.30825011665750   -1.28754522912646   -2.68776761055145
C         8.48604162485745   -2.19113300184032   -1.75254041250127
S         7.14744254071975   -2.63249733085683   -0.77787856317594
H         2.82993786536699    2.20889718034924    2.41596977355726
H         2.36782677015025    0.53283401946133    2.44859625139166
H         1.44968474027754    1.62245404111252    1.41683572029033
H         4.39057659469516    0.95027594815083    1.17984034510843
H         4.24204822419902    2.98017951182683    0.16507922982118
H         2.54700531206101    2.66419769254402   -0.40414386905175
H         4.99196590270279    2.49934528705768   -2.20348352516146
H         3.25279736795300    2.28144621097192   -2.58105855332566
H         4.89490003483736    0.54413245565451   -0.68737533437314
H         2.14618065569863   -0.72361213957729    0.33639580413301
H         3.56257023557439   -2.28145167211130   -0.05032462763431
H         4.85038661064798   -1.39508218499246    0.67790071965552
H         5.53657820266933    0.01790185342406   -3.59031794529538
H         7.07411635053598    0.21488381920713   -4.34753033458031
H         9.41941285867729   -2.70261987510002   -1.55865725582146
