32
 energy: -49.230397590475 gnorm: 0.280595159422 xtb: 6.4.1 (79825abcba525fcdf90b791dcacef51065a7a4e7)
C         2.49096590169606    1.26797349353988    1.81223790172735
C         3.55057046783308    0.88825088075501    0.74440590598083
C         3.82670984676090    2.21355055919481   -0.03807416433484
C         4.44583043345019    2.05804239064383   -1.48784396480375
C         4.32067151903463    0.42824514985083   -1.55198484881086
O         2.86989125603447    0.26274663048240   -1.38776642739240
C         3.03793789587545   -0.29981423398200   -0.05733104693037
C         3.96536217336744   -1.49047280289772   -0.39903090918545
C         4.67324111984050   -1.21535699259837   -1.76047745120012
C         3.89417657470560   -1.83589998273102   -2.90868259844251
N         3.18893024078532   -2.46327900354455   -3.74478265666723
C         6.12576248749891   -1.43585861443703   -1.85910335573389
C         6.97551494937340   -1.15321556849360   -2.91222455509457
N         6.60144196700052   -0.67297791470698   -4.11081616063421
N         8.28804241560256   -1.28117942092260   -2.62001877476634
C         8.46179130627712   -1.79001331996032   -1.42267589184755
S         7.03401333809776   -1.98860331413389   -0.49605418623428
H         2.71677607104791    2.21715281755482    2.31437972877137
H         2.42061044137775    0.44666575044344    2.53696135240250
H         1.51567473414518    1.27020729964262    1.30627428257886
H         4.49085473093718    0.62254632405308    1.22754522029658
H         4.51649097297619    2.78255171909670    0.59277937306168
H         2.89404449927422    2.79201606955227   -0.16834037309010
H         5.47735248450223    2.42930600475451   -1.53089964197910
H         3.94530097950729    2.59987125823864   -2.30646859848236
H         4.99099015197501    0.45513000564141   -0.66996136332923
H         2.06706400918071   -0.64388202211695    0.32356966336313
H         3.30808501359095   -2.35185593060390   -0.55439073226331
H         4.65838675252662   -1.65738814163514    0.43502173991245
H         5.70203573739323   -0.94303245344763   -4.49993798413357
H         7.31405802665755   -0.35581763394614   -4.76186895570438
H         9.41415728139680   -2.05569313982287   -0.98358063842824
