32
 energy: -49.230700993539 gnorm: 0.284996701764 xtb: 6.4.1 (79825abcba525fcdf90b791dcacef51065a7a4e7)
C         2.26303319177002    1.09804138301193    1.84997664238382
C         3.40189719766872    0.87674514532834    0.81981499437872
C         3.75478470061014    2.19989213040296    0.06503044195863
C         4.54343995035661    2.15987377667800   -1.30819459246010
C         4.43033475365601    0.53890183433233   -1.49707295297221
O         2.97245703459522    0.37474513413891   -1.41481749890322
C         2.98717412163941   -0.25835919838385   -0.10572047773298
C         3.99949497165085   -1.40209812696415   -0.35393443517693
C         4.74476274404662   -1.11401225059640   -1.69255329707575
C         3.91592162644104   -1.56542859153070   -2.88403805480681
N         3.25877882342358   -2.08135388535664   -3.82850857710758
C         6.17027578709029   -1.42542070879945   -1.89029979659341
C         6.96225211423804   -1.46015902678605   -3.02281792971303
N         6.60635634028049   -1.20007056356235   -4.29280722569224
N         8.25824971612007   -1.75825848640475   -2.78614466161616
C         8.50164003149217   -1.82858150453810   -1.49829901170719
S         7.13569899791568   -1.66510190771355   -0.47648923945677
H         2.36746542750150    1.99987043442982    2.46631770555085
H         2.17056741155547    0.18521592645208    2.45240518162895
H         1.36721366616977    1.20427440080282    1.22274545787476
H         4.36040737222137    0.69409108185984    1.30566758685808
H         4.23286954486883    2.79110633359771    0.85207374155608
H         2.81731354841916    2.72299142490486   -0.19759333716392
H         5.58617890196375    2.49564983973055   -1.24754708718754
H         3.91333997467884    2.69624874863414   -2.03588302928198
H         4.91409526815108    0.40782206091345   -0.50873639236161
H         1.99448341600728   -0.70990944005359    0.02363035793996
H         3.46946166273782   -2.35921582907398   -0.38741907013589
H         4.77181905099660   -1.51903212272716    0.41653917060183
H         5.62164707673013   -1.14753518841866   -4.53951456349432
H         7.27848291146831   -1.31548536314955   -5.04593890434901
H         9.46450674237376   -1.95302230443656   -1.02102179475782
