32
 energy: -49.229309224824 gnorm: 0.285836320765 xtb: 6.4.1 (79825abcba525fcdf90b791dcacef51065a7a4e7)
C         2.27934387929664    1.23209075393316    1.81508494412853
C         3.45034659463135    0.96908280377129    0.83182723174899
C         3.54904156118393    2.24603466509178   -0.06516803155449
C         4.30501042565195    2.14454366340257   -1.45352541375094
C         4.29388994094010    0.50939572533308   -1.50027385679585
O         2.87509198643042    0.20650486449981   -1.26705654418830
C         3.16538384838203   -0.31178332880459    0.06030199230469
C         4.18028842760265   -1.43230455320363   -0.26976359935905
C         4.78778136380930   -1.10227013427106   -1.66702793135387
C         4.00060015572300   -1.64888712890972   -2.84683548133827
N         3.42342479907562   -2.08619876087360   -3.87914710483334
C         6.22720728301529   -1.35722254039869   -1.84371596498043
C         6.97327663502229   -1.31524147301587   -3.00675023421761
N         6.64765789961183   -0.73901625205143   -4.17684321006919
N         8.23121710946059   -1.78271261673124   -2.85331030752261
C         8.43121508049735   -2.08486906225866   -1.59179023646946
S         7.14837164160285   -1.87418833218996   -0.47530376496835
H         2.53772209205317    1.95819571121857    2.59616773505015
H         1.90928686874146    0.33490573737182    2.32776148379296
H         1.42358449722539    1.56283224599654    1.21053305997126
H         4.40608350380189    0.78245543853545    1.32161717744999
H         3.97261363997758    3.06082170792620    0.53001704610956
H         2.51773593109680    2.54731900004532   -0.32419067486487
H         5.35271403523199    2.46997338768295   -1.44165737429523
H         3.78645096103509    2.61065586420717   -2.30680734084070
H         4.89033724625877    0.60968086118473   -0.57172186677763
H         2.26202264572747   -0.77858098172462    0.47515448147479
H         3.66072271085897   -2.39057307844696   -0.36928108400793
H         5.00423737621266   -1.58301752584804    0.43888395135354
H         5.70049343634613   -0.89734538473183   -4.51014214750998
H         7.28744687463011   -0.89741438204735   -4.95005866270566
H         9.37472025074283   -2.44729360637040   -1.20599520814645
