32
 energy: -49.228147267180 gnorm: 0.281772816007 xtb: 6.4.1 (79825abcba525fcdf90b791dcacef51065a7a4e7)
C         2.30155082810772    0.76311022420454    1.95853454376401
C         3.38300065371004    0.67515551714421    0.84950500609715
C         3.50855052438136    2.09229719877972    0.20074161167167
C         4.39133642931304    2.27971968722704   -1.10113681101354
C         4.47983201339739    0.67614274938852   -1.41214707879250
O         3.02371378912472    0.48330770780458   -1.37146301644791
C         3.02016277731485   -0.37120695379596   -0.19478770658230
C         4.00268737809225   -1.48140683945989   -0.63823335061295
C         4.80599322696754   -0.92635703447342   -1.85352649476707
C         4.01934769086572   -1.05224161868887   -3.14802720973577
N         3.26264512113389   -1.06520354712594   -4.15662690450277
C         6.20908300359338   -1.37196497480108   -1.88416931286360
C         6.92844866298902   -1.98195837968987   -2.89483824040690
N         6.41200773519898   -2.69801175926699   -3.90861186336445
N         8.24372332653667   -2.13512111895551   -2.62822795071003
C         8.62411662880606   -1.47766619062498   -1.55781469235073
S         7.31195280575473   -0.82176099118414   -0.67202116888108
H         2.54509066167134    1.47336212899802    2.75872740645578
H         2.32401792286142   -0.20484204296506    2.47552972561307
H         1.28906480875248    0.95343624455739    1.57663782779881
H         4.30155527080921    0.35603837968248    1.34202776941439
H         3.93484344827982    2.71293428712092    0.99485775983296
H         2.46854201954261    2.41949997407346    0.01969759277175
H         5.39271780670691    2.67002835618761   -0.88063128728281
H         3.78244145738916    2.74640434952209   -1.89215317676265
H         5.10262639665255    0.59935890688060   -0.49877602125787
H         2.00835617470601   -0.79079842079421   -0.11570232008161
H         3.40611365027811   -2.36667696092996   -0.88015777451574
H         4.71572346011530   -1.71024422375506    0.16363984336058
H         5.50936304669382   -2.34912624821372   -4.21972001515875
H         6.97415263634595   -3.11675803090044   -4.64408905613049
H         9.67791913480718   -1.40013841013836   -1.32569170919053
