32
 energy: -49.234870923432 gnorm: 0.283302699891 xtb: 6.4.1 (79825abcba525fcdf90b791dcacef51065a7a4e7)
C         2.51453273671183    1.20171003605064    1.95800911290009
C         3.46082274952335    0.90304867765406    0.76530090276788
C         3.65894180589869    2.17149839338054   -0.12729722322397
C         4.31452821807384    2.12504855351087   -1.56860719667290
C         4.33342573442060    0.48937305247568   -1.58365378805937
O         2.89451888442983    0.28272359260936   -1.36926184589200
C         3.01332335112395   -0.30557662967033   -0.04466339802973
C         3.98489454258717   -1.47671883169289   -0.32576440883820
C         4.68525596153251   -1.16456991562801   -1.68310553594727
C         3.97110972976970   -1.69996163926951   -2.91344740716913
N         3.45472575968098   -2.24570797380111   -3.92614118252098
C         6.12749472439069   -1.43949726157321   -1.79503712124548
C         6.94816102338251   -1.22179559355013   -2.88597406774109
N         6.57276248717135   -0.74428232567367   -4.08523953539278
N         8.25129625328664   -1.53311144906898   -2.71448549676332
C         8.51610312951906   -1.88836677756413   -1.47900924746127
S         7.12843273369213   -1.93204313184166   -0.47448003207301
H         2.87332811082107    2.06379469242342    2.53433711059514
H         2.48278087990973    0.37747601425220    2.68212959752366
H         1.49595027313094    1.37341954619813    1.58357267761639
H         4.47427226199622    0.73729571593802    1.13081840697664
H         4.21580215696336    2.95277806860261    0.39905354119770
H         2.64464675953939    2.54863871135546   -0.35185684422654
H         5.34799828853767    2.48634230371121   -1.64026365622315
H         3.75425069727367    2.58207779178336   -2.40015269977357
H         4.83032361171392    0.47331174201561   -0.59327515872369
H         2.01286348772388   -0.68322602167484    0.20538679006601
H         3.40117461171445   -2.39817911958694   -0.41693901347817
H         4.69379589211445   -1.56769315530332    0.50668388938000
H         5.60299295720444   -0.87846330817274   -4.35877077443312
H         7.27708396965798   -0.71480408791421   -4.81691181122951
H         9.48806316961630   -2.08472841993118   -1.04642729712825
