32
 energy: -49.230867767100 gnorm: 0.270974238503 xtb: 6.4.1 (79825abcba525fcdf90b791dcacef51065a7a4e7)
C         2.23128985649788    1.16735596609722    1.87569634308243
C         3.34001394736716    1.01513604701580    0.80109117995271
C         3.39861032631143    2.27625393376273   -0.12145713624590
C         4.09467816772769    2.24243250388564   -1.54401512791031
C         4.46917852837235    0.65160031508026   -1.47316115330778
O         3.06363293106106    0.25019828579101   -1.32336521417183
C         3.16458211455316   -0.28302588271061    0.02580265934300
C         4.27986834472133   -1.32361523564654   -0.23468311898070
C         4.86107838027848   -0.98767286519715   -1.64168547331252
C         3.95888679596486   -1.34606148765763   -2.81130002236692
N         3.35756823568552   -1.51422491203682   -3.90682601453352
C         6.26008132291265   -1.41973882800567   -1.79749346977151
C         7.00751641089665   -1.48951273590825   -2.95831343791371
N         6.61487280455676   -0.98774307474860   -4.14205278927087
N         8.28372903512314   -1.91612670706974   -2.84097130450917
C         8.52968101589039   -2.24348536639972   -1.59394503128644
S         7.20086471934967   -2.10717340294439   -0.52050104288558
H         2.33079582924251    2.08264382136694    2.47270952509589
H         2.22125931042766    0.32426142110677    2.57841346660997
H         1.25454201512593    1.20688494043857    1.37410073933950
H         4.25701014989258    0.97413511295561    1.38896352350755
H         3.98002043979712    2.97494514583198    0.48791087994350
H         2.39110038832348    2.68060332424794   -0.32853581214129
H         4.93995083698307    2.89417814899551   -1.79792442876321
H         3.28601533938709    2.38888569304447   -2.27809308445453
H         4.99299396629038    0.69679292284416   -0.49766625071864
H         2.24113976931494   -0.78955758881736    0.33683957824415
H         3.88044116040653   -2.34271169039393   -0.22909993028642
H         5.07142724771087   -1.34605852944338    0.52473667468332
H         5.63702664565464   -1.07904322073041   -4.40427023611160
H         7.31978617929975   -1.17713093019242   -4.84881400370305
H         9.41315215607274   -2.75245426304108   -1.23225349686055
