32
 energy: -49.224142293632 gnorm: 0.288518971522 xtb: 6.4.1 (79825abcba525fcdf90b791dcacef51065a7a4e7)
C         2.78057551008642    1.50519979452681    1.90696976796521
C         3.55230235236796    1.04363316054396    0.64260819330860
C         3.54753357202386    2.20485953626207   -0.40452017449380
C         4.06549866014316    2.01055792557479   -1.88886670484627
C         4.19498288526052    0.39464750296837   -1.66958334693610
O         2.79289699917040    0.11756000494113   -1.32826456557631
C         3.10187374902672   -0.27807327235197    0.03657255955525
C         4.09241206762051   -1.42990159358878   -0.25782134220698
C         4.69588100785649   -1.22343413456282   -1.68032421407465
C         3.94175427730036   -1.99740297914084   -2.74927478716460
N         3.51981472002533   -2.57095577357241   -3.78996894786863
C         6.15314228008608   -1.41773178706590   -1.76281274610135
C         7.03821889043189   -0.83972623282586   -2.65364357624666
N         6.69670904645305    0.11245766165088   -3.53902343527863
N         8.31402665619277   -1.25466873069217   -2.49672135920803
C         8.41429778457336   -2.13066517648492   -1.52445260995489
S         6.95078490702890   -2.56658606161424   -0.74681597450227
H         3.24245409950609    2.38064125882422    2.38062412190091
H         2.81054755761447    0.81048429251756    2.75620025874992
H         1.73684054079554    1.77667011697942    1.69692640960281
H         4.56460489939875    0.88176068535130    1.01301048662627
H         3.94719588538997    3.10138298066851    0.07926930157708
H         2.45091536146574    2.34118588986090   -0.42183806896383
H         5.09477211709488    2.28312202668086   -2.15350451882776
H         3.35236221872283    2.37187664534835   -2.64724638822961
H         4.91553671236135    0.41209096949821   -0.82785108268671
H         2.20368162799386   -0.68947029682162    0.51622607969261
H         3.50626536132918   -2.34787117926910   -0.14875849701690
H         4.90729418322265   -1.40858796996768    0.47654946882279
H         5.78497300055358    0.03853116910963   -3.98236198764772
H         7.45524822030415    0.22387002833647   -4.20572250220430
H         9.42179321063159   -2.44023344141446   -1.28050217380543
