32
 energy: -49.227601910415 gnorm: 0.277586338011 xtb: 6.4.1 (79825abcba525fcdf90b791dcacef51065a7a4e7)
C         2.13219852458445    0.24905071527128    1.89049941651911
C         3.28910746942244    0.31051129304537    0.85851077295860
C         3.69489826419739    1.81311380852320    0.70862159389888
C         4.70547699823481    2.24055348441462   -0.43389821374661
C         4.57200300885115    0.80730593214899   -1.21107513415284
O         3.11435358940140    0.83612819717953   -1.39423699973299
C         2.90971856421839   -0.28445358576792   -0.49024934820640
C         3.75354126405907   -1.40621199600473   -1.14152788717759
C         4.78324648724983   -0.65512765175980   -2.03924579513579
C         4.35231969925023   -0.73187123942023   -3.49485656988367
N         3.99124273073194   -0.87924894317447   -4.69399932870063
C         6.18552879023439   -1.09659009556587   -1.95629041524165
C         6.65991417079891   -2.37220623064740   -2.19876221404546
N         5.96717809115824   -3.51181260920881   -2.36786176072805
N         8.00971122039463   -2.42255719724111   -2.19863405884625
C         8.59180224810614   -1.26936172866494   -1.96616720717571
S         7.48721369134608    0.03095868150015   -1.80595907074627
H         2.38336217723782    0.75051955877333    2.83364513944197
H         1.87913233581734   -0.80084176606640    2.08646793758611
H         1.27706970253300    0.72334783226859    1.38950642485158
H         4.08817395909411   -0.24828674926740    1.34574223378160
H         4.10613857280750    2.14371932874306    1.66732796513306
H         2.76509658012769    2.36496119596819    0.47973390985273
H         5.69247574828317    2.57789162093381   -0.09365618024617
H         4.29316142975233    3.09749746076650   -0.99058253535376
H         4.82297240640115    0.28965729650030   -0.26393758136208
H         1.86406555997790   -0.61928263153578   -0.46651322425539
H         3.02587000903069   -1.94251570922437   -1.75878285673776
H         4.24112697584321   -2.00660546967579   -0.36334059188303
H         4.97557838442088   -3.37714436122421   -2.54638710671742
H         6.54941334202029   -4.21112499099193   -2.81979797582887
H         9.66037237814850   -1.13377099419747   -2.06698579469208
