32
 energy: -49.229255787173 gnorm: 0.283571403112 xtb: 6.4.1 (79825abcba525fcdf90b791dcacef51065a7a4e7)
C         2.18115101306354    0.95134075568324    1.84757567548378
C         3.32745176426171    0.86877689919031    0.80527338302666
C         3.49643460410654    2.26979791870834    0.13182542007797
C         4.32245886822019    2.28807215572651   -1.21972018905531
C         4.46917898425854    0.66789951139288   -1.39156798489735
O         3.02873398441283    0.38125048443784   -1.43708029181842
C         3.03329004508974   -0.28419131120898   -0.14404542752582
C         4.17472829612645   -1.30312444568387   -0.37520858033822
C         4.84530180435743   -0.94719808576083   -1.73681263235754
C         3.96886800877553   -1.23413755796354   -2.94508403666863
N         3.16773969008250   -1.48984350259227   -3.88468396751052
C         6.23453178801375   -1.39742114351920   -1.92524190554571
C         7.00356314710350   -1.70661044361417   -3.03159777935987
N         6.61943575117157   -1.85501986944781   -4.31128579205895
N         8.27841048398979   -2.07754289624961   -2.78328207412055
C         8.55118644656947   -1.97628195505503   -1.50341095281200
S         7.25863065089787   -1.40757296280085   -0.53259413525005
H         2.37166272395071    1.81549024346711    2.49644314063684
H         2.21426172232418    0.04170900679249    2.46092234925588
H         1.14729073872014    0.97606408609521    1.47647093945210
H         4.17188773474947    0.65417560771370    1.46027810190960
H         4.04984964970395    2.91597078144554    0.82010510675335
H         2.49123610039464    2.70024074911871   -0.02864644648364
H         5.32294302656437    2.73730098262949   -1.18884760043533
H         3.69949135798907    2.73984585462835   -2.00843214888515
H         4.98491966990590    0.51422306847441   -0.42285213909112
H         2.06828985637584   -0.78087988107195    0.02370199788717
H         3.78597877916396   -2.32633845222535   -0.38135172517206
H         4.94625996040515   -1.27334835538029    0.40430402258727
H         5.63036853616351   -1.71313647693627   -4.49807968625558
H         7.13071866082204   -2.36862999767833   -5.02337879931621
H         9.50732163255804   -2.32346291196216   -1.13508738898437
