32
 energy: -49.229139870973 gnorm: 0.273454794570 xtb: 6.4.1 (79825abcba525fcdf90b791dcacef51065a7a4e7)
C         2.56431060577200    1.10441362140319    2.00099345768328
C         3.54490048704342    0.80358367331075    0.83687959013588
C         3.65269050697089    2.13791526769922    0.02886488530476
C         4.50218931222783    2.19868250529350   -1.30679401213398
C         4.33616866826742    0.59096908929350   -1.55920746700768
O         2.89654701507108    0.39257580610411   -1.34183584471230
C         3.02263321921580   -0.30161273971955   -0.07023164868648
C         3.89635580015677   -1.48730902311317   -0.54486369948896
C         4.63230637584861   -1.05157643141249   -1.84825613603439
C         3.94449106556984   -1.59587428135816   -3.08964251969485
N         3.43454857172240   -1.98826749846146   -4.17409000034216
C         6.07715453748202   -1.33538207210495   -1.85412889429728
C         6.94419644794607   -1.44611820030084   -2.92511275324270
N         6.61267603371093   -1.35934200621697   -4.22501457411267
N         8.22658378039820   -1.78339687805654   -2.66779362470843
C         8.45492925887542   -1.76112055609121   -1.37547295991873
S         7.04625079856505   -1.50793241330223   -0.43306304110918
H         2.86484195139871    2.05851721332129    2.45204254869072
H         2.61530392081714    0.33941116439724    2.78641773914864
H         1.52215300244744    1.15323466753231    1.65643421737596
H         4.45953647871636    0.63400423691082    1.40507042051435
H         4.14627614569621    2.90105995633256    0.63838921629017
H         2.59437664499685    2.33306161066708   -0.22282134219938
H         5.55524707043741    2.44861995350711   -1.12699180820922
H         4.08394028149770    2.93024215779548   -2.01682412678198
H         4.90673759688509    0.46850046671557   -0.61715235554290
H         2.03731044528181   -0.65152385747376    0.26557385705178
H         3.30243442905342   -2.37661836046055   -0.77835274665409
H         4.63249170584044   -1.87938625372238    0.16799462517234
H         5.66406879718305   -1.43989813147881   -4.58128951500269
H         7.31930193014791   -1.81352292113653   -4.79657522511127
H         9.42809070296040   -2.03569618670622   -0.99082196847913
