32
 energy: -49.229696720856 gnorm: 0.279789385170 xtb: 6.4.1 (79825abcba525fcdf90b791dcacef51065a7a4e7)
C         2.43975449296451    1.13815220339690    1.91187640597196
C         3.56003253175838    0.95828615592983    0.85365072570264
C         3.67038655825630    2.22153239345431   -0.06121439375865
C         4.44732334549905    2.14503533268876   -1.43956231643780
C         4.38595243443999    0.51232280412487   -1.52019271658420
O         2.94044644509987    0.35626058229434   -1.30740681342675
C         3.13201856204012   -0.23298169337688    0.00821713188339
C         3.97822383252522   -1.44310594116338   -0.45446888741054
C         4.72335366084030   -1.12608650824480   -1.78660934853528
C         3.96473002564506   -1.61120354005459   -3.01116717421788
N         3.25776151061246   -1.95374531466766   -3.99752450451558
C         6.15743410292760   -1.45828672348954   -1.82157565276406
C         6.95658067647479   -1.43454188497661   -2.94933073586793
N         6.51932511203159   -1.32495142949002   -4.21581332044055
N         8.28043139182436   -1.55224236335636   -2.70838843573025
C         8.50417865873104   -1.66806844963899   -1.42026884843076
S         7.11554689862496   -1.80866990898312   -0.42601095319602
H         2.54635951649085    2.05874238481684    2.49943672020053
H         2.34950623808653    0.24837336402419    2.54816977293877
H         1.51894546931646    1.21726329082653    1.31769696074927
H         4.49540302211070    0.69437963682030    1.34720153145515
H         4.05992617582059    3.07904041205583    0.49598879368800
H         2.63879432782296    2.53821818962837   -0.29992731575301
H         5.49608550306941    2.44726299495767   -1.32782788191356
H         3.93334797152698    2.66015635735720   -2.26704898846627
H         4.87615867425712    0.42093578851071   -0.53056574129387
H         2.12906875392784   -0.56190995837987    0.31146946310447
H         3.30584105408094   -2.29387357343872   -0.60355497507629
H         4.72202721262021   -1.71574571208703    0.30461721270008
H         5.51305892191132   -1.39029321075660   -4.34401480457880
H         7.06455283380016   -1.56920072782159   -5.03761076666596
H         9.46547096562660   -1.69189305495284   -0.92454629736215
