32
 energy: -49.229511175573 gnorm: 0.286696001911 xtb: 6.4.1 (79825abcba525fcdf90b791dcacef51065a7a4e7)
C         2.37589447640733    1.10940721094137    1.88349263112329
C         3.49839696183257    0.81910604145809    0.85250782482243
C         3.92377116553717    2.13398840848960    0.12101045484261
C         4.37594967241604    2.14151066077968   -1.39714750263630
C         4.37466814691287    0.50688521235196   -1.46051832616940
O         2.91468568860059    0.44599229069708   -1.30603823178157
C         3.04258021931930   -0.30488374971042   -0.06724815233573
C         3.93755400216140   -1.49535817878523   -0.48717073210588
C         4.69368959322657   -1.12200963155636   -1.79834876130021
C         3.93253103836777   -1.62161617155497   -3.01548523981500
N         3.36132679162484   -1.89485749089242   -4.10594616734733
C         6.13656005631676   -1.38349741373996   -1.93219693493907
C         6.98626190469654   -1.51399910430100   -3.01478950403085
N         6.67812644666594   -1.47096024089880   -4.32260479193645
N         8.27078717651026   -1.71029569920444   -2.64607581268985
C         8.44659232716163   -1.71395232329020   -1.34537993384344
S         7.00467954128518   -1.50820877434237   -0.44251072604839
H         2.61010323044165    2.08854921632391    2.31996167839189
H         2.44197590021644    0.35515639588890    2.67813678603067
H         1.37747184684202    1.13835080841537    1.42576830819523
H         4.34412081846296    0.49176387144852    1.45728486276623
H         4.70172520992900    2.70655568084412    0.63529707903743
H         3.05811662857940    2.81865197634525    0.17875389335757
H         5.36826072017108    2.58823804900268   -1.53672411746644
H         3.63373951934925    2.56830587588786   -2.09085095797122
H         4.93991816263870    0.39241284115966   -0.51426054488287
H         2.04654730423374   -0.65018296329441    0.24056832356677
H         3.25311809610304   -2.34557894832447   -0.56965077873783
H         4.57828718864126   -1.81777763839770    0.34306675980512
H         5.70471541909650   -1.28091661173858   -4.54538540973795
H         7.33944491940761   -1.61850482202787   -5.07968504144904
H         9.41090623908538   -1.86490043847004   -0.87879156730275
