32
 energy: -49.229772864335 gnorm: 0.278765800177 xtb: 6.4.1 (79825abcba525fcdf90b791dcacef51065a7a4e7)
C         2.41015220883156    0.92513230534280    1.88042852115686
C         3.48251207626407    0.86337217948036    0.76085437346020
C         3.60414620183909    2.24095004438593    0.03117525215318
C         4.40838205522417    2.19900842346208   -1.33292560879980
C         4.39579398107635    0.57195310507990   -1.50189419091544
O         2.94742369729025    0.33951456315813   -1.41635664174401
C         3.04429218117627   -0.30201186900836   -0.11488323258681
C         3.98654865790109   -1.47489932717345   -0.47686410981625
C         4.75112843668163   -1.06218113790971   -1.77123633280481
C         4.02455750145969   -1.41779211516019   -3.05810297319580
N         3.21768483101073   -1.36825177791863   -4.02585417735410
C         6.18160240227186   -1.41020310916994   -1.79936624899924
C         6.92757169123910   -1.74160864085340   -2.91504128665288
N         6.45577249336764   -1.74872089837831   -4.17382465488215
N         8.24163433659254   -1.95864377106793   -2.69004699993076
C         8.53108857933769   -1.85264237292368   -1.41422940433486
S         7.22391557689465   -1.36102988537428   -0.42113746503917
H         2.56957254429633    1.73939132405623    2.59851308669403
H         2.48241156945711   -0.00809844585644    2.45364691716104
H         1.36748689902107    0.98036481891677    1.53838253588739
H         4.35863162463063    0.70126516520371    1.38878180219605
H         4.14726530775513    2.97630813313195    0.63267888974687
H         2.56792974927297    2.58610499172245   -0.13788038290207
H         5.42242587202873    2.61176690613574   -1.26169516147442
H         3.88986975781157    2.71191112225669   -2.15895851766824
H         4.95230757627584    0.55094278982872   -0.54384070693519
H         2.05041451154030   -0.72039400264243    0.09302940775806
H         3.44372171010044   -2.41767817312890   -0.59785079534151
H         4.74325451004741   -1.57261478987238    0.31157457824292
H         5.54897060678095   -1.36946524781363   -4.43296226552035
H         7.12872819110372   -1.89254826686282   -4.92130465504002
H         9.56071538547841   -2.01323846309722   -1.12359407535860
