32
 energy: -49.226433286303 gnorm: 0.281368223068 xtb: 6.4.1 (79825abcba525fcdf90b791dcacef51065a7a4e7)
C         2.00945898679438    0.38419582265033    1.88748935132142
C         3.22328667182653    0.34591454006102    0.92189463190664
C         3.65954660606789    1.83606631555967    0.73730804369253
C         4.72478585126430    2.18753909038204   -0.38119890963685
C         4.54032511671327    0.77243612196213   -1.18087112701262
O         3.07966767798478    0.77375758298563   -1.34086775540933
C         2.92223885685201   -0.33067829832853   -0.40801715115281
C         3.77004212815771   -1.39896049157677   -1.13914311623596
C         4.78367384559137   -0.65457719329408   -2.06042604314619
C         4.28225620024499   -0.65620294397656   -3.49533646890829
N         4.03105531159684   -1.04301827416029   -4.66892589941702
C         6.19563830035481   -1.07120569151830   -2.09114112767613
C         6.72248190132664   -2.33432515823380   -2.28606578937972
N         5.95583600433084   -3.43025629193662   -2.42160049509400
N         8.06805027236439   -2.43579242294635   -2.22575442289021
C         8.62844402289871   -1.26438778096968   -2.03470312045417
S         7.51253616499848    0.02396886537403   -1.85721368541662
H         2.28906977771679    0.91456516391633    2.80651285667684
H         1.71426112548725   -0.59829229528131    2.27774016759821
H         1.16515390303822    0.84713950302689    1.35831158441268
H         4.00925418780485   -0.13370426165915    1.50531375277875
H         4.15582373422168    2.06610246660928    1.68511017998531
H         2.78678164701507    2.50121416159458    0.60571795831340
H         5.75204641421296    2.25405377656669   -0.00167323959211
H         4.41447287049135    3.13072041942557   -0.85907899238117
H         4.78426379823404    0.11699456104698   -0.32127495664715
H         1.88659366386569   -0.69167249278748   -0.46446467467187
H         3.06704577327539   -1.97342966753249   -1.75062665457388
H         4.30049455935212   -2.04590662372056   -0.42930613683253
H         5.22608981986339   -3.36305115246672   -3.12603700125752
H         6.52938853254003   -4.26598443028311   -2.49144328350703
H         9.67822019537592   -1.14486526931609   -1.80216126508527
