32
 energy: -49.229588490217 gnorm: 0.275901826143 xtb: 6.4.1 (79825abcba525fcdf90b791dcacef51065a7a4e7)
C         2.27602300783701    0.85040144256182    1.90386138722355
C         3.41544642393426    0.60233779048336    0.88043822229895
C         3.74899766393392    2.03635339801542    0.35385483356512
C         4.42613452319603    2.28226317031573   -1.05693913795273
C         4.53722225608562    0.67038535945344   -1.31292211852458
O         3.07754639976441    0.50727371777529   -1.35607093657401
C         3.01822713831045   -0.38416616114175   -0.20864387149741
C         3.97530078411696   -1.48806555917736   -0.71850519931557
C         4.75036367871245   -0.89162070449772   -1.93252704901206
C         4.04135135956508   -1.20262560454301   -3.24056669271183
N         3.26952889115937   -1.35874438689568   -4.22543071233415
C         6.16113845117135   -1.31202195657205   -1.96634554109474
C         6.92046828410401   -2.02675554701696   -2.87387223211473
N         6.42948259417949   -2.68324697476419   -3.93929829373032
N         8.24948116906088   -2.03622061201126   -2.63278619668719
C         8.53378436807758   -1.47038002338387   -1.48312245858760
S         7.19483616207156   -0.73484080681478   -0.70671054566566
H         2.66267766908571    1.62275469469482    2.58065283476729
H         1.89589515160472   -0.03593785539860    2.42790894353507
H         1.36601351994689    1.22500034467965    1.41523532398415
H         4.22323561799094    0.23261229568467    1.51205256714036
H         4.35352708308797    2.52973093381480    1.12109618914912
H         2.78512049098030    2.57525112668863    0.39842295208672
H         5.40629057265013    2.75650971287035   -0.92235630113642
H         3.77568907790669    2.78362500313465   -1.79165784868715
H         5.01260703357912    0.45269868296225   -0.33586679288089
H         2.02298847951815   -0.82653537024158   -0.06767013434527
H         3.33219431335750   -2.33960117491626   -0.96229197239659
H         4.76323828840467   -1.77329069231133   -0.01027590090452
H         5.47371986000344   -2.45519587780044   -4.19965786843013
H         7.04212863858839   -3.02728411095556   -4.67318200789620
H         9.54385740026173   -1.41764723545353   -1.09924346642198
