32
 energy: -49.226319696277 gnorm: 0.278995758667 xtb: 6.4.1 (79825abcba525fcdf90b791dcacef51065a7a4e7)
C         2.47310031357262    0.99561044610603    1.96375892635689
C         3.52482710153651    0.74246445543561    0.85155204726018
C         3.77841043606621    2.11767600745850    0.15195506637803
C         4.37728606042033    2.16776716974979   -1.31370670676779
C         4.35025281901435    0.53677345262432   -1.43677806237320
O         2.90040215882096    0.33899710067951   -1.30284373168065
C         3.04009332358954   -0.38475452475295   -0.04927176921235
C         3.92236125420709   -1.54055892610828   -0.57866944525581
C         4.67950790302704   -1.07056629292958   -1.85779175688605
C         3.94512772481597   -1.36973635705481   -3.15454665850750
N         3.41599825172049   -1.64383981590997   -4.26582044953774
C         6.09826672702930   -1.46401216463143   -1.87993042440448
C         6.94249885147333   -1.81424203201124   -2.91706193248705
N         6.62169229226647   -1.90147770671701   -4.21961854511235
N         8.25867309547790   -1.87096303606542   -2.61880800545795
C         8.46764123211082   -1.48904423246815   -1.38058309079598
S         7.05526800572372   -1.12610413755974   -0.48053195119384
H         2.91929419052909    1.71807000712528    2.65877061222626
H         2.18328030946731    0.14617681366625    2.59557159529026
H         1.60848242872092    1.47622333899307    1.48559138697274
H         4.39914453639170    0.40536395064700    1.40840865078708
H         4.41411093791650    2.69923402980929    0.82664880967463
H         2.83386501400053    2.68341273593388    0.05587081564011
H         5.36247487753821    2.63429298186268   -1.43814491161308
H         3.57743863799330    2.59225352373348   -1.94164777697711
H         4.97936006915506    0.44142108317208   -0.52950341629897
H         2.09837680251999   -0.70268105551656    0.41780083005142
H         3.40062078569147   -2.43165862848767   -0.94179344490141
H         4.66757962599798   -1.94228397518446    0.11922323118387
H         5.64261985699711   -1.84066548441109   -4.48606901776302
H         7.32005221296157   -1.92223264248304   -4.95728017949172
H         9.47751094333053   -1.44575355502537   -0.99499206023849
