32
 energy: -49.227971270558 gnorm: 0.285324744235 xtb: 6.4.1 (79825abcba525fcdf90b791dcacef51065a7a4e7)
C         2.16948104956030    1.07244598266390    1.74570152482558
C         3.43139471381536    0.82126904913287    0.87869499353140
C         3.70415163811345    2.19504947790684    0.18351282125059
C         4.30452017975825    2.26625063488842   -1.28066393810478
C         4.35289088028574    0.63443395763618   -1.38483906762475
O         2.91739418310319    0.32241750569419   -1.35143559767924
C         3.07878877441682   -0.32467391981205   -0.05915189203204
C         4.07662215300763   -1.42696822478337   -0.48789218180505
C         4.79833063419650   -0.95011273392468   -1.78483617912241
C         3.97836628012071   -1.47494045175503   -2.95214272474502
N         3.25987171757944   -1.85843390799101   -3.91481529476321
C         6.21457849911632   -1.34943974519055   -1.83911590844069
C         6.93300163779601   -1.66986443136271   -2.97587746061751
N         6.54759175478076   -1.64533730062351   -4.26352581640076
N         8.24867190284850   -1.92581545438422   -2.80858086252153
C         8.60925755411416   -1.72907154741437   -1.56198533110472
S         7.30088630608632   -1.42899411128235   -0.49674643446540
H         2.30827227465622    1.88583288372619    2.46903877798522
H         1.88270272908837    0.20028888257346    2.34721675127206
H         1.29744225654245    1.24109488644596    1.09893810098523
H         4.19105225278874    0.60771888286096    1.63067488339762
H         4.34279952986752    2.78528494745264    0.84780753770822
H         2.74765947243058    2.74098521282275    0.09113752961030
H         5.34403801832058    2.61608943449190   -1.25339332158262
H         3.62188222729390    2.82110808235494   -1.94428520362881
H         4.80902335601372    0.47115553264763   -0.38819539474760
H         2.11221801939592   -0.75177495259539    0.23982935137279
H         3.54714716397471   -2.36640446121480   -0.67563303561712
H         4.84455689820419   -1.67498955988277    0.25544439827080
H         5.57905368275077   -1.69205080090176   -4.56853182690784
H         7.26566694668502   -1.87502396250934   -4.94462352832999
H         9.63883734919395   -1.86991948814542   -1.26112213479735
