32
 energy: -49.232770689928 gnorm: 0.273503724872 xtb: 6.4.1 (79825abcba525fcdf90b791dcacef51065a7a4e7)
C         2.72482257607313    1.11700384101253    1.98325023361612
C         3.64378143662334    0.89705478601130    0.75265960437612
C         3.71961235328246    2.19868129366666   -0.11045415606902
C         4.34342369631325    2.12496541668636   -1.56467248547535
C         4.24514603083945    0.49242260665607   -1.59878021275044
O         2.81995886277486    0.27619900311807   -1.31380703105728
C         3.09366547843510   -0.30146249223809   -0.00760467827023
C         3.92663255435141   -1.52239020834814   -0.46591000956342
C         4.62221792178385   -1.14548573780118   -1.80919777328684
C         3.97476672053096   -1.68608835285098   -3.07369213671131
N         3.32981644495957   -1.97405782361125   -4.11827476466288
C         6.07313775446084   -1.39643435613811   -1.81397332490968
C         6.93796164746088   -1.45915136608945   -2.89062406782384
N         6.65661524990456   -1.21283983504844   -4.18188526512321
N         8.24623269782805   -1.61730257543253   -2.59414072019335
C         8.41267264061160   -1.73136512787347   -1.29721432504542
S         6.98100106922699   -1.62770223391592   -0.36116613524188
H         3.21471464497386    1.84678067113221    2.64014411821512
H         2.69025917857013    0.16926336271288    2.53580225573085
H         1.73951613205669    1.47941252977861    1.65916970524291
H         4.66802798920421    0.67797651974010    1.05445542433108
H         4.20807388567854    2.98433232289790    0.47409207851016
H         2.68444214995658    2.54596349101789   -0.28155064727799
H         5.39509286196464    2.43730243945960   -1.55179773291872
H         3.78972345683891    2.66925032969048   -2.34660888101553
H         4.95715308589155    0.41678670566057   -0.75300219174382
H         2.16412888816365   -0.67070987812409    0.44591731008344
H         3.16070214013012   -2.28679357436226   -0.63074000026793
H         4.56859175860237   -1.95326701844858    0.31256360641214
H         5.67358373905503   -1.18318783485980   -4.43888064170676
H         7.41640557540358   -1.09574854496272   -4.84618213125190
H         9.33823029865608   -1.87895347209284   -0.75688844057229
