32
 energy: -49.230864367786 gnorm: 0.284282681144 xtb: 6.4.1 (79825abcba525fcdf90b791dcacef51065a7a4e7)
C         2.28180043070752    1.21595812060294    1.77147626981155
C         3.47738552184980    0.91287296744361    0.83023668835101
C         3.70470014966074    2.21427295838475   -0.00620421074307
C         4.32625436038584    2.18667361708251   -1.46299321613634
C         4.36377150193446    0.55204436313171   -1.51395896035983
O         2.93365817763243    0.27452240538208   -1.32192180892266
C         3.07464821226686   -0.30170092515692    0.00580601857199
C         4.06066852438389   -1.43666349592567   -0.36048118814078
C         4.76380802515828   -1.08266307608939   -1.70606527587679
C         3.98687864331646   -1.67399934900527   -2.87100835637111
N         3.37472108811431   -2.16356448709821   -3.85874781563007
C         6.18391407401087   -1.45479743363239   -1.82000022418130
C         6.93233577182125   -1.40255772866025   -2.98110597668869
N         6.55754889366404   -0.85762610874246   -4.15147556012842
N         8.24300080678445   -1.67165562508207   -2.79609029200790
C         8.52047471887300   -1.95425401105513   -1.54474023207114
S         7.19877589561578   -1.80287480632998   -0.46454939042647
H         2.33921071811884    2.12409529061052    2.38472089901812
H         2.28077871849332    0.34745554158426    2.44261158120915
H         1.31527712121276    1.17550709320893    1.25052191338388
H         4.36985656796096    0.73725997564723    1.43091339974767
H         4.23879865799813    2.82953184021468    0.72436529280687
H         2.70041243559340    2.63183362002013   -0.20243255825513
H         5.33137316542701    2.60409579469608   -1.60164066957541
H         3.57663600297108    2.51741166308214   -2.19983730716133
H         4.83096762544298    0.43765030792074   -0.51563181960279
H         2.07744337273573   -0.68045843388388    0.26693693352983
H         3.46802773884372   -2.35340851870561   -0.44101868792207
H         4.84699090910873   -1.55478072860093    0.39551685943935
H         5.61236835298582   -1.02690843994819   -4.48502323682385
H         7.25298015954075   -1.09828692691027   -4.85200376438833
H         9.55170502259440   -2.07440190400102   -1.24056938643231
