32
 energy: -49.228987345507 gnorm: 0.288938863245 xtb: 6.4.1 (79825abcba525fcdf90b791dcacef51065a7a4e7)
C         2.40401911230550    1.09931753677774    1.96897425865125
C         3.48794330382727    0.75634936150238    0.91318192764420
C         3.83048141741974    2.08695194264148    0.16678279349942
C         4.49251983198173    2.17722867068897   -1.26949044710774
C         4.44161460270025    0.54962932358288   -1.42552532647274
O         2.98515695925493    0.39136468425752   -1.31236938586334
C         3.04651415557428   -0.33368302214099   -0.05327692731900
C         3.83987543851286   -1.53851603462821   -0.61318557747925
C         4.67057340373719   -1.07462266418945   -1.84811951353868
C         3.90649754293516   -1.45233016942640   -3.10665650334277
N         3.25762187278987   -1.71417332601591   -4.15567445549153
C         6.11087044532958   -1.37080436109411   -1.92549647706834
C         6.94616182340003   -1.68646840290080   -2.98080454421431
N         6.64815065923890   -1.89370189237842   -4.27518634962277
N         8.26284899946030   -1.68687719312993   -2.67943761322925
C         8.46560243663876   -1.55611335979993   -1.38927388081325
S         7.03762340495939   -1.34161882421227   -0.46651514966177
H         2.82757926102364    1.84222597733498    2.65655108018815
H         2.12338121987450    0.26219804826174    2.62104305425358
H         1.57046895399722    1.59748819744095    1.45495367412379
H         4.41738895537762    0.58109940300876    1.45500776258383
H         4.37454833338958    2.78356023958699    0.81196848798216
H         2.85963259238115    2.58711412657796   -0.00276552525395
H         5.51887856449543    2.56221790979854   -1.22367292921469
H         3.89237264799808    2.66863265818429   -2.05217814346034
H         5.06025626576769    0.32847573760100   -0.53311909782604
H         2.02299936569040   -0.65787260147489    0.17777001421604
H         3.17087574026304   -2.35720253772885   -0.89659807018248
H         4.52640375448580   -1.88795061107707    0.16807108239223
H         5.72748682506935   -2.00260657625105   -4.69207324384941
H         7.46043033163738   -1.90721681218342   -4.88535117655652
H         9.45124034856991   -1.48569819525426   -0.94887523197159
