32
 energy: -49.229341036366 gnorm: 0.287310508296 xtb: 6.4.1 (79825abcba525fcdf90b791dcacef51065a7a4e7)
C         2.63213152722599    1.28645725704332    1.98753142568833
C         3.51300088436470    0.96992871583960    0.75015713919582
C         3.60884668453259    2.25402673306457   -0.13689027577798
C         4.14374821114049    2.15749518786247   -1.62480411215370
C         4.25860354366836    0.52682195952107   -1.56372286804061
O         2.83337976272721    0.25609012137999   -1.33013718470651
C         3.04744847251806   -0.27422798109787    0.00691554305303
C         3.93679462994844   -1.47879654170438   -0.38375106601299
C         4.70252073042808   -1.10306418981263   -1.68866742853050
C         4.15830231724011   -1.77472692665175   -2.93890169795314
N         3.60630037513849   -2.41079999578923   -3.87738187750324
C         6.15246350639961   -1.33259517973155   -1.80333138739630
C         6.98439100205747   -1.18623830454097   -2.89763796893791
N         6.64638087833559   -0.58638237167345   -4.05223861298713
N         8.26706775293588   -1.55961936786147   -2.69810290494271
C         8.41890306963973   -2.04301194507606   -1.48731463110876
S         7.03298230483139   -2.01198832365364   -0.47990365979530
H         3.03851453357915    2.14234754663811    2.54104989858586
H         2.60385193187194    0.43167147406557    2.67547176357980
H         1.59085274179555    1.40121110354427    1.65622027250793
H         4.47214730867792    0.73150492232359    1.20988448626438
H         4.32338385803662    2.87074667347498    0.41685122614610
H         2.62491112785056    2.75695434075736   -0.15666205639465
H         5.17774509049288    2.49610452838510   -1.76595075971717
H         3.47540214998502    2.48977502450210   -2.43545705857082
H         4.99307960910147    0.61740898174204   -0.73888700852213
H         2.10498896140912   -0.66749873317800    0.41086143251581
H         3.34029733287245   -2.37329586659807   -0.58915981953250
H         4.68182937324273   -1.72579186165514    0.38286758759080
H         5.70693820458281   -0.76401923779243   -4.39744785419411
H         7.28154327305936   -0.58764667168393   -4.84523871791915
H         9.25999959567723   -2.61049550014193   -1.11193428211717
