32
 energy: -49.232075795944 gnorm: 0.278882513808 xtb: 6.4.1 (79825abcba525fcdf90b791dcacef51065a7a4e7)
C         2.49626918549836    1.24750271059689    1.83739239560502
C         3.55043737291023    0.81983511974783    0.78238237951077
C         3.85320930197177    2.12460589833331   -0.02437014059074
C         4.49527327786432    2.05060237732017   -1.47060763760233
C         4.41045598751610    0.41872488777156   -1.54676365522541
O         2.95522078677565    0.31166882000747   -1.37370199912985
C         2.99365756098702   -0.31702864100655   -0.06296372700566
C         3.86749561994597   -1.52790200909018   -0.46883949490790
C         4.64002706049559   -1.24146384078986   -1.79226925632461
C         3.85626441341796   -1.78268972947703   -2.97682860868481
N         3.14186993819711   -2.33061910154947   -3.85969556476476
C         6.09527417159672   -1.46455691275005   -1.81779710761054
C         6.91825959184532   -1.25405414571603   -2.90839977622846
N         6.56979735223314   -0.80774938225839   -4.12764821898094
N         8.24183322277207   -1.37258379818164   -2.66634424392759
C         8.49400832827441   -1.59465990671226   -1.39755722048623
S         7.08635016623187   -1.81334005159744   -0.44503783003733
H         2.89355114877648    2.16118880860349    2.29719973833178
H         2.42022207961098    0.46095411102005    2.59915254002126
H         1.50156119702529    1.40964980418289    1.39982940287431
H         4.42301353664640    0.45793882242176    1.32625636436739
H         4.45751956761821    2.73257267627964    0.65586658864731
H         2.85559877063111    2.57286211986196   -0.18341689687608
H         5.51256324126668    2.45977974920621   -1.43288214401866
H         3.98858634177270    2.62059849822512   -2.26598636261444
H         5.04974767269261    0.28216345966843   -0.65196065391372
H         1.93469028757256   -0.50212642914632    0.16151615445550
H         3.23897235080916   -2.42181637211008   -0.53213590823378
H         4.60471962958966   -1.78247710980796    0.30283394471616
H         5.67401917449997   -1.13287905405749   -4.48141222023548
H         7.36262187837453   -0.75142294766924   -4.76052944113705
H         9.48502716002827   -1.76240645389787   -0.99738959392394
