32
 energy: -49.231455275494 gnorm: 0.279464528004 xtb: 6.4.1 (79825abcba525fcdf90b791dcacef51065a7a4e7)
C         2.38141531211000    1.41854696246923    1.73058793637285
C         3.49437531091760    1.10725361720579    0.69539096700369
C         3.52704840518043    2.29145564661083   -0.32517028959202
C         4.25888672882731    2.06539704682763   -1.71176170210161
C         4.33577959011370    0.43842782994410   -1.55985219155820
O         2.90187416291980    0.20068455211105   -1.34418071554499
C         3.11763471412718   -0.21086764462900    0.03380508788993
C         4.14782591149536   -1.34855323290468   -0.16347647210484
C         4.75217056243042   -1.20313025830144   -1.59313996423360
C         3.95699849583204   -1.95909945173433   -2.64509158217446
N         3.53850260979927   -2.56023252876685   -3.67151272384885
C         6.17659923272611   -1.54683559814352   -1.73817775628623
C         6.97209073822653   -0.91803249266940   -2.67776837673564
N         6.48242497227017    0.01991927346706   -3.50701777899487
N         8.28932353741078   -1.20938295677835   -2.61068649324438
C         8.49907294369510   -2.12261343881056   -1.69158591723811
S         7.11750161950033   -2.69902098236638   -0.85754112324630
H         2.43531817150335    2.47168067148119    2.03403794738963
H         2.49528941943020    0.82691700140669    2.64804477808532
H         1.42076079545795    1.13464380309164    1.27921344539284
H         4.44947810118875    1.05120810166682    1.21768835726344
H         3.94777748158442    3.14127256301739    0.22103000408222
H         2.49248793276147    2.59013195886689   -0.57403445387461
H         5.25233993019587    2.53084919712490   -1.70021891508068
H         3.61274423152249    2.34390762914389   -2.55981021254465
H         5.06167522894683    0.56643972114528   -0.73238390152569
H         2.19165767111271   -0.68186405821075    0.38988512522603
H         3.67840100502977   -2.32884792977382   -0.03388714998565
H         5.02136067572508   -1.29798628199325    0.49846583979853
H         5.57219060494194   -0.20243610871145   -3.90110951810015
H         7.13598243843148    0.46219082601838   -4.14697133225000
H         9.50172570947585   -2.52601630163623   -1.64316152202333
