32
 energy: -49.231129303920 gnorm: 0.276094988507 xtb: 6.4.1 (79825abcba525fcdf90b791dcacef51065a7a4e7)
C         2.27823214355112    1.17966471507521    1.86198441287524
C         3.39543784446485    0.96056161241444    0.80791538110331
C         3.43480863125206    2.23212660022094   -0.10121589678942
C         4.26233534040595    2.18152971610771   -1.45101776050327
C         4.42882410837492    0.55463937941073   -1.41193867770574
O         2.97927387922643    0.32813438638250   -1.33057250737356
C         3.06639603781334   -0.27899721359112   -0.01202267833651
C         4.10392950149676   -1.40259364693384   -0.24781450162453
C         4.76129723038824   -1.09231246382761   -1.62691248747629
C         4.01597420933412   -1.61564557173596   -2.84387851073550
N         3.59472091645173   -2.08125282656923   -3.93740294702775
C         6.19272276974610   -1.39568790625811   -1.79168698424101
C         6.93110214243918   -1.40295143126134   -2.96035021703581
N         6.53735120430622   -0.91265244193161   -4.14852013142640
N         8.24312616838506   -1.70920983868151   -2.86398600416648
C         8.54878179910114   -1.98620282350474   -1.61796027570906
S         7.22612678882716   -1.96573203887600   -0.52856577989032
H         2.61731296668337    2.03460897357439    2.46045959782112
H         2.09388590114826    0.32692717996940    2.52799908137685
H         1.36250711453342    1.48481531229118    1.33707697374211
H         4.35795265454540    0.96323285724346    1.31949637076468
H         3.87929517456848    3.03678056421101    0.49250139277164
H         2.37294977341699    2.44465150377483   -0.32199908173226
H         5.15928557288400    2.77589352284472   -1.23668122896082
H         3.69105697322572    2.49098374071594   -2.34103673953691
H         4.98637556197341    0.63979285984097   -0.45805160393232
H         2.07370364456609   -0.67732879076662    0.23689069138410
H         3.73185332006429   -2.43023355902884   -0.30819956368167
H         4.86767216516435   -1.38244667148679    0.53963636392358
H         5.56760858141726   -0.95669540052965   -4.45007655784648
H         7.15149574783779   -1.24234718868816   -4.88771556828207
H         9.54916772964876   -2.24228621298592   -1.29540695210464
