32
 energy: -49.231545800276 gnorm: 0.279681259274 xtb: 6.4.1 (79825abcba525fcdf90b791dcacef51065a7a4e7)
C         2.05948590053943    1.14209728373327    1.73400495784402
C         3.28674902246124    0.91051315069747    0.81345605076341
C         3.50777232184691    2.27215724620105    0.07723508213105
C         4.41957619345738    2.23420899926821   -1.21756188951243
C         4.53498875097059    0.60665571705789   -1.33489949058476
O         3.08662514986766    0.36933042269113   -1.40589537698597
C         3.07594994372448   -0.28370542893263   -0.10658674616436
C         4.13721112415120   -1.39591246948077   -0.28339914966391
C         4.85153567137833   -1.03266575193044   -1.62060155010623
C         4.00632459853428   -1.43997306136903   -2.81647330710115
N         3.19280205846210   -1.77702330976892   -3.71903541455944
C         6.26221707115668   -1.37262917264637   -1.87073995867130
C         6.98014894851214   -1.52848059449810   -3.04177144851497
N         6.51211192524353   -1.36023574853890   -4.29069724883991
N         8.27196861049536   -1.90275444065591   -2.91683801657478
C         8.59239412087073   -2.00092054889872   -1.64781417876713
S         7.30432791023714   -1.75320740136966   -0.54502710494262
H         2.09898152590812    2.12232337026295    2.22560942422040
H         2.04978432088569    0.38516692822619    2.52878964318533
H         1.18010455270966    1.04548891286007    1.08242817557438
H         4.17650491537954    0.65991682406729    1.39111766178142
H         3.87954300261917    3.04206042292135    0.76029596325978
H         2.50663829974488    2.60237774565367   -0.25464045844518
H         5.36934872741413    2.74952702981950   -1.02754171766139
H         3.90288138363891    2.61918259586947   -2.11147259799473
H         5.04507602737614    0.64984006659591   -0.35206615102781
H         2.09684082170578   -0.73647313148353    0.09935216371142
H         3.53306029482467   -2.30668184481957   -0.34366313311415
H         4.86019002813371   -1.49364929680955    0.53607424016690
H         5.50642008255272   -1.39789215533677   -4.43367531263441
H         7.11135190254500   -1.66988468682284   -5.05050710680682
H         9.59957854143611   -2.22578133866346   -1.32314738487241
