32
 energy: -49.229025848202 gnorm: 0.284280961517 xtb: 6.4.1 (79825abcba525fcdf90b791dcacef51065a7a4e7)
C         2.74361462855876    0.79185397805343    2.12546399280067
C         3.59997555324477    0.73357311150645    0.83299906964581
C         3.65523755021829    2.12565469397321    0.12306792014497
C         4.43031196012041    2.23197555165809   -1.25435035634831
C         4.29941006120300    0.61190340529651   -1.43941465206113
O         2.84634654909752    0.41049909256736   -1.35477686099243
C         3.03527915538337   -0.31871713244595   -0.11086333151826
C         3.84241521663074   -1.50392471378588   -0.69254776390321
C         4.66258526153907   -0.97479287763471   -1.90813757535711
C         4.03626897019634   -1.26250581511176   -3.26288456457532
N         3.45061659568451   -1.35943363920998   -4.37538464597282
C         6.10801495875118   -1.25112823863520   -1.95851728417472
C         6.90875156627538   -1.95482735703887   -2.83866444405677
N         6.56717591042734   -2.35860561455602   -4.07457294339472
N         8.20525203716789   -2.07037927377945   -2.47780215221302
C         8.42479373679350   -1.51197048707388   -1.31044973727940
S         7.04366657402456   -0.81727845899206   -0.57118899673536
H         3.18009743909784    1.45563972802369    2.88239811837599
H         2.64305238808145   -0.23977824440550    2.48649387112858
H         1.76025549225340    1.25822044103876    1.97478497589635
H         4.57678545344685    0.44321053526381    1.21989569266932
H         4.02533933864272    2.86515738426122    0.83979446940404
H         2.60814479926459    2.36266030431530   -0.13938473406275
H         5.49012941763669    2.51089673837123   -1.20221460513070
H         3.82105362950941    2.84615024701090   -1.93688114655046
H         4.89281517730883    0.35390947819607   -0.53978984338887
H         2.09772422243389   -0.70748650923841    0.30855676497586
H         3.14090214427699   -2.25545004761148   -1.06834014252461
H         4.59365251424062   -2.00941526849509   -0.07294349918797
H         5.64591980463590   -2.19042826003620   -4.46989607021624
H         7.17365218996194   -2.94466318921345   -4.64114603821940
H         9.35839075563616   -1.56587740115893   -0.76649936366212
