32
 energy: -49.226326034648 gnorm: 0.279945884463 xtb: 6.4.1 (79825abcba525fcdf90b791dcacef51065a7a4e7)
C         2.04132695631762    1.08260660062298    1.71855497244717
C         3.34809980329756    0.83259321320091    0.92039815671615
C         3.63176000006188    2.15849366293583    0.14163494240815
C         4.20758479273625    2.16430856122048   -1.33407423006144
C         4.43307625734940    0.54640243346970   -1.42097195826890
O         2.99389740548094    0.27833157708860   -1.29438964791390
C         3.12249284545190   -0.36231146928421    0.00476869518779
C         4.16931676904018   -1.45343833955307   -0.32408421563540
C         4.84498669493011   -1.07647602891337   -1.67748273918678
C         3.94964239691683   -1.43669435360553   -2.85178746557397
N         3.34415376170678   -1.52186382936856   -3.95458836181716
C         6.26446042304285   -1.41820568495440   -1.86848410771904
C         6.96550317146450   -1.53408080314148   -3.05429295162117
N         6.46505487914508   -1.46718658644323   -4.30018913803602
N         8.27269526253486   -1.83276461200176   -2.89143063996628
C         8.63316955069148   -1.81411477246019   -1.62951104530061
S         7.35413085209499   -1.51205302630045   -0.52976816376080
H         2.20982958942636    1.86321912007988    2.47110330536336
H         1.95852808234223    0.14261875992923    2.27916855203520
H         1.12127288033746    1.35987356641102    1.18580685032570
H         4.19036348071709    0.65684420150629    1.58962247322124
H         4.26434318530970    2.77955957343233    0.78323618615977
H         2.70181644656443    2.73610265573006   -0.01011854771938
H         5.12820066443426    2.75287351352102   -1.23515042962663
H         3.50821527332816    2.53418308922202   -2.10110073331098
H         4.99175434010374    0.55584438595147   -0.46399497810661
H         2.11100266956396   -0.70316168498452    0.26317312839621
H         3.70130085249992   -2.43126828904932   -0.47554550611832
H         4.91449497044481   -1.54100156572564    0.47643420951926
H         5.45508226069925   -1.53200671712694   -4.39521795610293
H         6.97533077126565   -2.03106883492325   -4.97393787523012
H         9.59776367060276   -2.16238934550476   -1.28504861760548
