32
 energy: -49.230255583766 gnorm: 0.277253580267 xtb: 6.4.1 (79825abcba525fcdf90b791dcacef51065a7a4e7)
C         2.21186848770254    1.21218424744124    1.80006887909072
C         3.38030319845378    0.99092735619473    0.80356399359108
C         3.45441851417235    2.22227822189450   -0.15728418612718
C         4.16652239483402    2.21063661568920   -1.57223934811191
C         4.37015688141883    0.58959380382569   -1.48995288179085
O         2.95185371891499    0.24747484207897   -1.31533448766502
C         3.12439307080000   -0.29138903439914    0.02430299893861
C         4.29460514630678   -1.28418038001359   -0.17447189791939
C         4.88210133588017   -1.02167944998237   -1.59442242324497
C         4.00898917496470   -1.44534846007869   -2.76428138663750
N         3.35420909034954   -1.52492385310628   -3.83897713612546
C         6.28345817397536   -1.42099415985603   -1.80634964238066
C         7.00936780091429   -1.44403262894124   -2.98259581261707
N         6.59836994190897   -0.87578462247420   -4.12948534982162
N         8.28547628616895   -1.86338222700422   -2.84053818278680
C         8.51791840960166   -2.27265879110497   -1.61530598095534
S         7.19821745915315   -2.14348357836565   -0.52980201333273
H         2.35202317249507    2.08923521712646    2.44444167291063
H         2.15056025422173    0.30822560074288    2.41960132015134
H         1.31841542766841    1.31552252805460    1.16899054410073
H         4.27287627810306    0.89126237384199    1.42125096421288
H         3.90122453866031    3.07980787296403    0.35510607905626
H         2.39367329979958    2.51523876512640   -0.25950940123842
H         5.18306126075279    2.61376168905022   -1.66093613811374
H         3.49510294294248    2.59462975271444   -2.35709585726543
H         4.90364656613250    0.66654201906091   -0.52171581303024
H         2.20669526571252   -0.76998801844850    0.39150573546534
H         4.00671631924265   -2.33830409847597   -0.11064368771976
H         4.99899429058836   -1.17048626899906    0.65901307629005
H         5.58791597492615   -0.84919995154139   -4.23696955668248
H         7.18855361729983   -1.09857676422020   -4.92593304395188
H         9.46275169687114   -2.70504325021516   -1.31409990787606
