32
 energy: -49.225975147370 gnorm: 0.282101706897 xtb: 6.4.1 (79825abcba525fcdf90b791dcacef51065a7a4e7)
C         2.12165375719808    0.92236346017555    1.85533825771863
C         3.28398158532477    0.82177870179710    0.83255137921804
C         3.38631069164149    2.15807674223731    0.02708036130588
C         4.33903817411855    2.27572847192409   -1.23299661568268
C         4.49035638378190    0.65343618601439   -1.37890210583695
O         3.05650350671426    0.33712852310432   -1.43490409788738
C         3.01798065208231   -0.32009841818914   -0.13823858984460
C         4.14714889309834   -1.35112468575613   -0.37594920847511
C         4.91656923451013   -0.95917628288674   -1.67390406043967
C         3.91860333948114   -1.13337734019097   -2.80708910076524
N         3.14835399048645   -1.42044835958011   -3.76330368275521
C         6.30503774440250   -1.40093668817034   -1.88643477900846
C         7.01750659854361   -1.72319198840920   -3.02642173454817
N         6.41796820236346   -1.91831305894196   -4.21371366291320
N         8.30984867394738   -2.06085090582324   -2.82560905594114
C         8.70319247873720   -1.85042824676597   -1.59121303036230
S         7.41978715956489   -1.36267457270368   -0.56574589980343
H         2.48069815840729    1.43096700986516    2.75893528293461
H         1.80511888115120   -0.08680992005869    2.14875799264580
H         1.28236823980314    1.38267786239079    1.31597983604457
H         4.20251971338610    0.67727850216758    1.40137859788168
H         3.72133947199119    2.96102652004545    0.69083022411387
H         2.34098618948898    2.46381437587649   -0.16074260944600
H         5.31369618422992    2.76673728437456   -1.12038969071000
H         3.79092265306616    2.73868906497601   -2.06935265077098
H         4.95248158320963    0.55925092476516   -0.37611362889546
H         2.05183787740823   -0.83652961330803   -0.06122521861532
H         3.69356117980723   -2.33528206710574   -0.53029708852152
H         4.84806770289557   -1.45838894821804    0.46130512759611
H         5.46667564412052   -1.60510735935152   -4.38755690448206
H         7.03790336651373   -2.11531470291332   -4.99419606558498
H         9.67682758159630   -2.18513873318314   -1.25895569795992
