32
 energy: -49.226472712530 gnorm: 0.280787937365 xtb: 6.4.1 (79825abcba525fcdf90b791dcacef51065a7a4e7)
C         2.67741306575636    1.32604930518410    1.85476961490847
C         3.62094980350249    0.96766231856757    0.67641760298134
C         3.70279098699763    2.17552514986914   -0.31318669152797
C         4.22154522750552    1.98188137566218   -1.79734359029070
C         4.35381463442962    0.36217359724829   -1.61007535483533
O         2.91107624576311    0.22258973849190   -1.36894650603877
C         3.07078129284921   -0.27381047598827   -0.01142898252429
C         3.97607483830875   -1.49745209466174   -0.29015322007396
C         4.61999650705177   -1.30838005115867   -1.69725472581437
C         3.83477506385015   -1.80413514418043   -2.90060189850573
N         3.33343692630765   -2.07251203590367   -4.02606805051530
C         6.06888531961757   -1.56922432506024   -1.72637258999313
C         6.92859076090857   -1.11922332787505   -2.71097214152894
N         6.54998126801440   -0.45375515760441   -3.81595522616639
N         8.25848120890630   -1.29948230022875   -2.55804921688390
C         8.48145047302181   -1.83613490922950   -1.38118079584541
S         7.07289024485058   -2.28169384897255   -0.51281968889011
H         2.91675112839312    2.34249562743180    2.19186337394807
H         2.84457409493979    0.61430332443327    2.67342413848662
H         1.61124978643101    1.32307081851255    1.58928133708301
H         4.56909611240569    0.69209188077333    1.13819299791879
H         4.40867501483798    2.88356787203997    0.13171751456211
H         2.69677133304996    2.63262303317434   -0.29215660463227
H         5.23887563340854    2.38170719058594   -1.89171718327429
H         3.53354118839477    2.32322492720047   -2.58752684334619
H         5.02412835414137    0.40083050362916   -0.72848562507760
H         2.03902647422562   -0.38946500169983    0.34657956813923
H         3.40744223124661   -2.42361270965327   -0.15971435395646
H         4.78406669732316   -1.44827845957995    0.45046728630451
H         5.55722771716083   -0.33749031718547   -4.00088681042573
H         7.23748930985511   -0.20712546180965   -4.52220484372695
H         9.49925260099689   -2.04985051655726   -1.08319450846696
