32
 energy: -49.227104168927 gnorm: 0.288822677858 xtb: 6.4.1 (79825abcba525fcdf90b791dcacef51065a7a4e7)
C         2.19397751904399    0.33372115165849    1.95376311958976
C         3.33847973647722    0.34064304738377    0.90625033676753
C         3.59969267871222    1.85529502213863    0.61894484013517
C         4.45281866271915    2.31238676852537   -0.63507619681196
C         4.46890732556720    0.79218442417569   -1.23901645810872
O         3.01149743733173    0.62226501722434   -1.31778599743617
C         2.97305154184630   -0.45342601563448   -0.33993968285654
C         3.88845850435322   -1.45334235910249   -1.08608967043645
C         4.79485694494295   -0.64916998906004   -2.06693963403281
C         4.34275265170184   -0.44270220895069   -3.50338072377436
N         4.02657759606154   -0.27307357585066   -4.71222298005601
C         6.19193599045728   -1.11266539989593   -2.10577906199676
C         6.68890301518277   -2.40249073221316   -2.12590336691164
N         5.93302083991748   -3.46394498971336   -2.45626322765067
N         8.02279333042333   -2.58872672425978   -2.02323840707189
C         8.58568737460194   -1.41697294952359   -1.84192657594486
S         7.53909234582770   -0.06006709779714   -1.84974015737669
H         2.49675745357960    0.88048780304356    2.85567696036870
H         1.91103107637227   -0.68674864712516    2.24238584800159
H         1.30780434814020    0.85134241234829    1.56138272204996
H         4.18069657892417   -0.12702766296747    1.41626200245282
H         3.97212397657941    2.26736311227986    1.56182941725745
H         2.59817319639720    2.29908127743831    0.47242259137905
H         5.53164725783499    2.48894416030484   -0.54188520136404
H         3.90705883287290    3.02394966081321   -1.27545031255545
H         4.94910564110531    0.30634465240043   -0.36644291485050
H         1.94430763415127   -0.82089181535217   -0.22716134418608
H         3.31664226796838   -2.18870954637293   -1.66088712806356
H         4.50582044900482   -2.05043427243577   -0.40335026611273
H         5.20542876907799   -3.40374690937472   -3.16355580049403
H         6.41764474281778   -4.35474437354268   -2.51869853412252
H         9.65637070025709   -1.29697064875326   -1.74380408661001
