32
 energy: -49.171528753641 gnorm: 0.309963280691 xtb: 6.4.1 (79825abcba525fcdf90b791dcacef51065a7a4e7)
C         2.30074647835595    0.35518291133173    1.84791902104477
C         3.51508049271530    0.21166500626732    0.89292594256712
C         4.04705592135402    1.66481732978290    0.66865441400495
C         4.62067600590355    2.06908829083223   -0.75150422517158
C         4.32248221802053    0.55256191318887   -1.28745767146892
O         2.85792644111165    0.61546589074312   -1.18626334548647
C         2.98276070493280   -0.54350556392871   -0.31679553472630
C         3.44567518989664   -1.60345227722556   -1.34478655907014
C         4.57819143302479   -0.88755346913986   -2.14178958846898
C         4.23001143495597   -0.66062697234369   -3.60386527914975
N         4.70309322716133   -0.43734864497136   -4.75120157292377
C         6.03406359745118   -1.09036624254853   -2.05536284521504
C         6.74916097740999   -2.26061270386400   -1.88161144525922
N         6.18884770241122   -3.48000216534096   -1.96110361873610
N         8.09450644784667   -2.16951296991768   -1.96056529045822
C         8.46910178464291   -0.91158827756437   -1.95470089506336
S         7.17209942059933    0.20826276009320   -1.97298246376757
H         2.70876312917157    0.67741046805588    2.81423669675438
H         1.73618019765329   -0.57140512656390    2.01350857825464
H         1.64871515448144    1.16245940402889    1.48686936869170
H         4.28880183198945   -0.40738977964628    1.34711033419076
H         4.88369417972248    1.90079609781067    1.33340019511740
H         3.28421844665236    2.43624936041349    0.87943366137194
H         5.64888262326537    2.44461576132665   -0.67735249112400
H         3.88003515632322    2.68174461237914   -1.29035292484420
H         4.72748456698757    0.03967257838387   -0.39250911455327
H         1.98480754356447   -0.91113834291512   -0.04293475856915
H         2.73108785949315   -1.70449273426122   -2.16776080356330
H         3.71872187067568   -2.60162183075487   -0.98024484475546
H         5.21336082367859   -3.55032202688518   -2.23815465676943
H         6.67489765584135   -4.36874524131580   -2.03967343117325
H         9.48538303372729   -0.57414837146517   -1.80075905883803
