32
 energy: -49.231700280032 gnorm: 0.272688353190 xtb: 6.4.1 (79825abcba525fcdf90b791dcacef51065a7a4e7)
C         2.38114911882536    1.13856329109393    1.80872844996668
C         3.50957244447432    0.86867862874070    0.77866081159556
C         3.69724997586317    2.17249068715020   -0.06383460049062
C         4.54409796342967    2.14447090840416   -1.40226239083315
C         4.43495149689586    0.51594914340690   -1.51190622402821
O         2.97455118250674    0.37138876648503   -1.43805471084036
C         3.03345197044523   -0.25742472081271   -0.12813219544988
C         3.99084069193838   -1.44979509149730   -0.36520212931555
C         4.69607961834889   -1.14448878492965   -1.72157380105082
C         3.91262818365871   -1.68431709107013   -2.90697646770999
N         3.28202614073896   -2.11211497507843   -3.91165062879120
C         6.14637203016240   -1.38977718292730   -1.78977855111497
C         6.94768911699656   -1.37000384353810   -2.91606916729816
N         6.42558619780842   -1.05152479583588   -4.11321589331777
N         8.27528242851437   -1.55202001700101   -2.74620619856038
C         8.50619595041237   -1.80033365140598   -1.47823542655018
S         7.14482207534764   -1.79309725761291   -0.43745470784641
H         2.71214746895761    1.96501844877407    2.45020331411736
H         2.27319715565400    0.25888648297496    2.45621240100310
H         1.41810361542639    1.35317249013424    1.32532045927202
H         4.40794749616881    0.57428508925684    1.32125800591950
H         4.24409852161705    2.90845038465807    0.53354007365268
H         2.65720602244631    2.46815909054602   -0.29262501568907
H         5.57308492974075    2.49866569581168   -1.26276299315347
H         4.07376658913080    2.70117920074568   -2.22877241802203
H         5.05626037129874    0.46872251019038   -0.59552190320605
H         2.02309293127736   -0.57288223947702    0.16465657677363
H         3.36828375580407   -2.34819941568774   -0.42371160917874
H         4.62119195677351   -1.51430187916622    0.53050082045571
H         5.43782588107090   -1.14895184597220   -4.33256570766560
H         7.02486386183665   -1.15528924506808   -4.92708397680176
H         9.47308525543166   -2.13265785314669   -1.12457307896463
