32
 energy: -49.234090109205 gnorm: 0.282811367332 xtb: 6.4.1 (79825abcba525fcdf90b791dcacef51065a7a4e7)
C         2.36134116614622    1.22659495801322    1.81553125805185
C         3.47289189182269    0.92329261335808    0.77645525411130
C         3.67782647904180    2.24085393988049   -0.04023392715733
C         4.29760063329929    2.17649684754480   -1.49662114521177
C         4.38434104005066    0.54341160799223   -1.45755016193728
O         2.94466892159049    0.26467778794752   -1.36388865580360
C         2.98980430485683   -0.28241310622436   -0.01725319993957
C         3.99371829174221   -1.41671414714660   -0.33357623074245
C         4.75024459895894   -1.09816413930165   -1.65891083645798
C         4.08195383806932   -1.64469330744793   -2.90994383407602
N         3.50617083734813   -2.19606155568473   -3.88693264046269
C         6.18061344211664   -1.42746171476497   -1.77627529969103
C         6.91599533891649   -1.37177464076617   -2.94552420173661
N         6.50891390611476   -1.04881211008908   -4.18534698543303
N         8.22264971127933   -1.68226161699743   -2.80151205668159
C         8.48159834344638   -1.94834213094682   -1.54259293359991
S         7.18811390969061   -1.81602791423922   -0.42634624669021
H         2.66730972157635    2.10728699477772    2.39418730073235
H         2.24727283639252    0.35707239413767    2.47556103508537
H         1.41752994383681    1.45664575430799    1.30221454990394
H         4.38518971286521    0.74506010354877    1.34575557968953
H         4.28612967235653    2.96381418020495    0.51188220506505
H         2.70541556497106    2.75769760892085   -0.13375354081850
H         5.27697711960746    2.66031933079084   -1.59892317715210
H         3.66578742525534    2.58171524312578   -2.30338298506995
H         4.97605552472125    0.58247813042433   -0.52140750950251
H         2.02395656745490   -0.62412074508590    0.37826940687791
H         3.44968336553471   -2.35492421959922   -0.48162583176556
H         4.73002490086969   -1.66639529693817    0.44056814744287
H         5.57587853417311   -0.72867221905392   -4.43076958507570
H         7.00784324522243   -1.48051979824231   -4.95799180555621
H         9.46684196068453   -2.21373595358082   -1.18307590670600
