32
 energy: -49.225296322535 gnorm: 0.280382445232 xtb: 6.4.1 (79825abcba525fcdf90b791dcacef51065a7a4e7)
C         2.65052618694941    1.19371613131276    1.86254331296741
C         3.67599415736500    0.82098375141278    0.75950102650166
C         3.83123445950901    2.12254483326211   -0.09301668878027
C         4.39424841581804    2.03833333046153   -1.57127555632720
C         4.34510240221789    0.40343648596743   -1.59801218257713
O         2.90270253170141    0.33731306844512   -1.32555826996236
C         3.06060263592163   -0.32016084055534   -0.03809241945100
C         3.84414611810034   -1.57257300920172   -0.49859842241415
C         4.66118631178151   -1.24997376114198   -1.78650099458746
C         3.89810759703012   -1.64992988881307   -3.03875344646235
N         3.23581435898240   -1.74535208084370   -4.10753892931893
C         6.11021332374352   -1.51156512034145   -1.77894866952218
C         6.94746271025245   -1.31944309619909   -2.86206140791511
N         6.47410166409555   -1.15907367364788   -4.11001638115259
N         8.25943755901888   -1.46312809006969   -2.57472199944870
C         8.49950373016285   -1.64947040791871   -1.29786046980595
S         7.07242138228577   -1.64645148949971   -0.34915474402836
H         3.02488709617800    2.02390820505130    2.47468142382697
H         2.41773783260651    0.37495718229147    2.55548179867301
H         1.73753561514872    1.48179527424565    1.32341841217788
H         4.63989645975124    0.62039230439003    1.22727493033452
H         4.46416262641326    2.84247927398110    0.43484015295680
H         2.82052643302884    2.56163792165321   -0.17741353791249
H         5.43922179139456    2.34080484965076   -1.71364772636821
H         3.60185591375948    2.48648818793753   -2.19218287551015
H         4.82221093331887    0.32022226599785   -0.60128848082523
H         2.07187473230361   -0.60761496987963    0.34381248021859
H         3.13470671152449   -2.37527573722738   -0.72330909347537
H         4.47420495165931   -1.94998088771483    0.31649468618789
H         5.59771189369035   -1.62158116110381   -4.33652159463297
H         7.22368910848876   -1.16280724921986   -4.79586385926216
H         9.45464737115937   -1.95384878627153   -0.89111019557114
