32
 energy: -49.226828056378 gnorm: 0.280885547062 xtb: 6.4.1 (79825abcba525fcdf90b791dcacef51065a7a4e7)
C         2.48242795780085    1.36234637249945    1.81053833219864
C         3.54347389210629    0.90671793115311    0.77429486872831
C         3.79345182552623    2.17077455091376   -0.11149243341001
C         4.52339130443623    2.00865515777902   -1.50799922492219
C         4.38006493277500    0.38244560092437   -1.61248779248264
O         2.93260810710894    0.26586102202293   -1.38799370566480
C         3.08639180425732   -0.28725633575019   -0.05188575314743
C         3.96630585237412   -1.52577824632070   -0.34575162293611
C         4.68715951746729   -1.28072188952082   -1.70613221398982
C         3.92210298682841   -1.91794500732380   -2.85462053087655
N         3.37786658983956   -2.46081109634601   -3.85419207817214
C         6.11907764541871   -1.60780851637929   -1.81001268299740
C         6.85800047603172   -1.05711637924965   -2.84043095709793
N         6.37345178437999   -0.56133514618605   -3.99220965580063
N         8.19292311140981   -1.16043415321616   -2.66212137057948
C         8.48528745347808   -1.68748509474256   -1.49615782522984
S         7.14782267197655   -2.16967091402424   -0.53944444524516
H         2.80825992538111    2.17207959952231    2.47555236612754
H         2.01355617720887    0.56870606592011    2.40636942867218
H         1.65263467578430    1.70813478254268    1.17881804634590
H         4.42641447801957    0.71605941389939    1.38439506755549
H         4.31608662544479    2.93052240506974    0.47772108430580
H         2.81101287111088    2.65405300626199   -0.26219716569782
H         5.54936796424522    2.36450489954252   -1.66443148889922
H         3.95323980365787    2.59116876800884   -2.24952447865800
H         4.93254298968385    0.34994020019857   -0.65242180814770
H         2.08286952365071   -0.53702209421184    0.31774134676111
H         3.32277386305997   -2.40597907528301   -0.44189684737462
H         4.70553953304407   -1.65899568145110    0.45398226778037
H         5.38236083072944   -0.53785708599264   -4.21685229071939
H         7.08182966848987   -0.35609524723204   -4.69103681093623
H         9.46403380747761   -1.82855401161815   -1.05735662456786
