32
 energy: -49.229830978681 gnorm: 0.283608038359 xtb: 6.4.1 (79825abcba525fcdf90b791dcacef51065a7a4e7)
C         2.29819191732806    0.89785816683270    1.95274584786243
C         3.35581209834144    0.75133249801974    0.82705226055957
C         3.54094871404232    2.14112431800710    0.13484536354122
C         4.44173781863534    2.24162376696024   -1.16430990834942
C         4.43820813060400    0.62201556592795   -1.39425482283358
O         2.98077253521940    0.43493969658925   -1.39203403688209
C         2.94018795074339   -0.33260714219511   -0.15753112345973
C         3.98471008073452   -1.42944923341996   -0.47447490612481
C         4.76218772289901   -1.00077312905026   -1.75591288974442
C         4.00332554775869   -1.37614940208371   -3.01829598760350
N         3.32377718803912   -1.59541974266757   -4.05761051251599
C         6.18767609377523   -1.35253870584897   -1.86731410883119
C         6.92626719090864   -1.76483525514579   -2.96071492066141
N         6.54379790007637   -1.98502677393514   -4.23052339783699
N         8.25551030260769   -1.90953454566849   -2.76924122298401
C         8.60480249096818   -1.60600673818409   -1.54099188792850
S         7.28329512235607   -1.16413182741955   -0.54350477864694
H         2.63809109758124    1.71113409910082    2.60629679605826
H         2.10344310628006   -0.02424199991176    2.51535100482436
H         1.35823581388989    1.22430449037426    1.48679267763153
H         4.29171200979616    0.44231116228607    1.29262091804930
H         4.01322073227524    2.89714823712943    0.76960790461493
H         2.52135385888365    2.46936457380625   -0.13744299345359
H         5.41924092403493    2.64464292376003   -0.87140814592374
H         4.04218964134120    2.85649454662748   -1.98683633564255
H         4.86651372748107    0.36241384269282   -0.40573241278958
H         1.90353029028514   -0.66056962345154   -0.00311090724770
H         3.48515200429003   -2.39656202441066   -0.58965044434178
H         4.73701307252196   -1.50653319213278    0.32043760093532
H         5.56476072189311   -2.20169631320307   -4.39730867395550
H         7.13037578786277   -2.39364639182131   -4.95249183228986
H         9.61302636896210   -1.82786527592425   -1.21748800973267
