32
 energy: -49.226072531215 gnorm: 0.289794527180 xtb: 6.4.1 (79825abcba525fcdf90b791dcacef51065a7a4e7)
C         2.59710293401016    1.02715601583479    1.98764448996348
C         3.56962077196942    0.82213020941872    0.79626304655493
C         3.70120304801775    2.15434863050083   -0.01171432892612
C         4.44696123979250    2.14066454421100   -1.40920602368897
C         4.43938508817121    0.50628012032567   -1.47811181600918
O         2.97710794560220    0.43380842356861   -1.35315486206874
C         2.98663153048392   -0.27490285827998   -0.08334766383676
C         3.81539130650353   -1.51916024342440   -0.48275121668463
C         4.66036258147462   -1.15249385918907   -1.74048619581987
C         3.95592084999917   -1.51585859831874   -3.03745116788508
N         3.32055988828440   -1.77450953022670   -4.09549477546850
C         6.08622232186293   -1.49380149499524   -1.87686594880475
C         6.95183666070659   -1.49039639426740   -2.95470211442907
N         6.58261338192543   -1.48999636779518   -4.24731753985388
N         8.26540129246846   -1.54014091983786   -2.64395986649120
C         8.46277592105110   -1.63503172277004   -1.34983097747619
S         7.02089340039118   -1.58166279948743   -0.42530826329233
H         3.02706077177539    1.83130796559867    2.59801645516900
H         2.45476264463994    0.11294110004762    2.57812794370642
H         1.69214276449725    1.38945423508909    1.48070847093680
H         4.53053054070208    0.64681280779046    1.28007419485655
H         4.21615776628856    2.90565766470650    0.59482741088921
H         2.68680766518522    2.57093035855597   -0.14925688300317
H         5.50864474646185    2.40116249697350   -1.31594746736555
H         3.81079378485957    2.53129921088659   -2.21973059283011
H         4.98796518991814    0.38093146338702   -0.52345854006281
H         1.92163008709039   -0.45880198893621    0.11163215496896
H         3.24488126409384   -2.43560323323471   -0.66380744804704
H         4.50770123704290   -1.72454485556969    0.34327041697632
H         5.61709527056146   -1.69021716840770   -4.49422484809362
H         7.38132197283714   -1.60987520659483   -4.86373921844080
H         9.49061306431970   -1.63446005059387   -1.01227825934184
