32
 energy: -49.227273635093 gnorm: 0.275669458425 xtb: 6.4.1 (79825abcba525fcdf90b791dcacef51065a7a4e7)
C         2.39334287572760    0.82568511945690    2.01651023492347
C         3.46902002237293    0.64206001343946    0.91359737923985
C         3.73468168900676    2.05669299533545    0.30270895902387
C         4.51805599524433    2.23368942507512   -1.06269300705730
C         4.39092245268697    0.66225940229496   -1.49911322149625
O         2.94076022428433    0.50480809650375   -1.32202729830491
C         3.00707872476584   -0.34821757204223   -0.14613539603423
C         3.94927109032731   -1.46224984685424   -0.66164296292440
C         4.67905506487268   -0.94777104701173   -1.93954942189174
C         3.97926014725048   -1.30340678401327   -3.24116400637105
N         3.47650501703583   -1.50005562317043   -4.38072824284754
C         6.11783890065353   -1.26026677579037   -1.91920584036029
C         6.87522614073925   -1.92107501193709   -2.86827256349587
N         6.47633834451138   -2.51593486991057   -4.00590647357798
N         8.20680521884746   -1.96556374690106   -2.64599969310350
C         8.46613757259554   -1.50320794627614   -1.44528972032437
S         7.15527483401528   -0.75841691267297   -0.63070952472385
H         2.81850099297703    1.49697389963928    2.77327306798065
H         2.24685234473260   -0.19305930246718    2.39785090554468
H         1.46220788461207    1.18746618889659    1.55901802590758
H         4.39040432163154    0.24684337408460    1.34139614641841
H         4.15690283377887    2.66861432994656    1.10571462114336
H         2.68930420112690    2.40047465465267    0.20045260476195
H         5.54117218528367    2.62851773192235   -1.09543555321032
H         3.91791195419221    2.85077560278218   -1.75065109499964
H         4.99744332007085    0.51500869296634   -0.58343589732102
H         2.00055121881125   -0.75914655311578    0.00911875253869
H         3.33186988358990   -2.33490916957981   -0.89704110689779
H         4.66759424599713   -1.79981743864918    0.09588432133561
H         5.55148478259168   -2.54808671521830   -4.42648816296823
H         7.24272339604471   -2.88518814284471   -4.56141345806506
H         9.44342030192433   -1.33566870404223   -1.01257684917589
