32
 energy: -49.230232288581 gnorm: 0.279912210847 xtb: 6.4.1 (79825abcba525fcdf90b791dcacef51065a7a4e7)
C         2.79264906298592    1.50198838642090    1.80655632691111
C         3.63672821741985    1.08707227765305    0.57262307375917
C         3.58737151272997    2.28504129129687   -0.43106084654844
C         3.95979882232678    1.93879443274780   -1.93130635241139
C         4.19044643581093    0.34489282084879   -1.64443150159633
O         2.78417163312132    0.06938090660549   -1.31946197630599
C         3.13122728630944   -0.25241299934517    0.05559211564964
C         4.08109730677513   -1.44601071792736   -0.20443450105431
C         4.66936419944806   -1.27985501350581   -1.63853782220197
C         3.97231012620707   -2.03063297750784   -2.76140838628921
N         3.56786130120787   -2.53482506992879   -3.84411408081624
C         6.11868336098635   -1.50912700563900   -1.76131681083749
C         6.98767392320844   -0.85058581430583   -2.61114591298668
N         6.63504176980706    0.19201952347088   -3.38303017448417
N         8.27831630130593   -1.21696284292711   -2.45462932973501
C         8.44050234815956   -2.12223700929488   -1.51819729144115
S         6.98374734587457   -2.63572802351967   -0.77603320011088
H         3.22336671527597    2.36767112404064    2.32535661394050
H         2.77537029934680    0.69656914494932    2.55202374346070
H         1.75156061746742    1.72344575238163    1.53399712510070
H         4.67181527935007    1.00748956377000    0.90491566896149
H         4.27505543919904    3.07063090491926   -0.10322508885709
H         2.59740793970645    2.75258355291875   -0.27995611778437
H         4.83329455936970    2.47236268522281   -2.32632321257219
H         3.14977188102788    2.07815321973877   -2.66526141348369
H         4.90367355445086    0.57014001616431   -0.82676037685303
H         2.25223003418772   -0.59663549106439    0.61678620336995
H         3.55314432007036   -2.39382715485763   -0.05938116490852
H         4.90431106305528   -1.44039852279194    0.52087593932280
H         5.66659679123615    0.33753833669308   -3.65545523243297
H         7.43277446404108    0.48208665040590   -3.94138995867003
H         9.37940995973154   -2.65696844846094   -1.46428863005001
