32
 energy: -49.226061013076 gnorm: 0.277883477146 xtb: 6.4.1 (79825abcba525fcdf90b791dcacef51065a7a4e7)
C         2.67912139117319    0.77225274823259    2.08387560551757
C         3.54991300121793    0.63292634428133    0.80734656340103
C         3.87910588654245    2.02238453010463    0.17017684346047
C         4.65434810312464    2.19703458570374   -1.20015977175052
C         4.40774299501273    0.61544015491419   -1.53744724174814
O         2.94802114008919    0.49723409849180   -1.41761294227113
C         2.95249328852656   -0.32224622870336   -0.21627839528860
C         3.80107151501441   -1.50092571545344   -0.75029344465097
C         4.65261828800025   -1.00675815030753   -1.95900536273748
C         3.91569638993625   -1.26962746890841   -3.26216922768112
N         3.21377760595978   -1.37731108318180   -4.30416461692430
C         6.08594875727521   -1.33728075101919   -1.89203576611806
C         6.91442682483730   -1.89814335188447   -2.84602099541013
N         6.58164032879040   -2.45240049041809   -4.02467819731469
N         8.22104868543474   -1.88452107935163   -2.50390835528982
C         8.37442954128640   -1.34313151284126   -1.31811653402487
S         6.96553811211776   -0.81280049446972   -0.49934327470848
H         3.11777051629870    1.51913053131696    2.75755101588829
H         2.61499201224229   -0.23549534949457    2.51405181823636
H         1.67736370738707    1.09955171009766    1.77314426213953
H         4.45092941944660    0.17416392452658    1.21460994362847
H         4.42433175930754    2.53008592705607    0.97174065824542
H         2.93006153730480    2.57377258497254    0.04078472521938
H         5.72336546998367    2.35212657419790   -1.00812708314313
H         4.11197661322674    2.96593528891557   -1.77363986905079
H         4.90719088610499    0.30884306166945   -0.59693391179172
H         1.98332590227777   -0.77590919427375    0.03063978852415
H         3.00332938158725   -2.15132284057097   -1.12274733254220
H         4.32130877520465   -2.10978648065241   -0.00034052899109
H         5.68759378718524   -2.21747647143704   -4.44748819948952
H         7.31707601931802   -2.74095068074943   -4.66354842202131
H         9.31918292991534   -1.28659762297588   -0.79405898647846
