32
 energy: -49.228147212274 gnorm: 0.283383201088 xtb: 6.4.1 (79825abcba525fcdf90b791dcacef51065a7a4e7)
C         2.24917627939279    1.18873350108047    1.83526615617218
C         3.32872832324837    0.99130180677468    0.73854177002898
C         3.54974341802320    2.29562291313569   -0.09503248135790
C         4.28945979344536    2.19255738991847   -1.49200161001226
C         4.45808954340147    0.56548595051915   -1.50684718798372
O         3.02237175836365    0.25756374430450   -1.45190004429289
C         3.02937777027740   -0.25050563663653   -0.08933293753440
C         4.12623934812065   -1.33124500172484   -0.24243263255604
C         4.84257548970646   -1.08129105587744   -1.60430764724278
C         4.03332342829290   -1.66422150950542   -2.75134445792548
N         3.52132569603304   -2.10214681662798   -3.81723370964139
C         6.25617293497408   -1.44040041087825   -1.80666648895524
C         6.96781583022995   -1.37790188371316   -2.99017353422431
N         6.46490894374338   -0.86669006383319   -4.12724335370553
N         8.23654066929307   -1.81716308869070   -2.84227427438422
C         8.49176683847057   -2.13682982243336   -1.59511615505099
S         7.20379900702467   -1.99907927082039   -0.47316279174307
H         2.43522321913185    2.13310498579806    2.36216944053978
H         2.19165483345169    0.41789208797553    2.61450628468469
H         1.24052024128127    1.31744594071424    1.41904128996930
H         4.22519893965337    0.85384311351554    1.34319253296625
H         4.02163884743501    3.02479218949188    0.57067269140744
H         2.54811997818611    2.70871835259809   -0.31311256989006
H         5.31528242998464    2.57682919986389   -1.43075372449396
H         3.77272172705871    2.68983558705257   -2.32863217932840
H         5.01003475346237    0.70053631014219   -0.55546231426640
H         2.03428275359650   -0.66264571496455    0.12512116187854
H         3.84199999384889   -2.38440132067803   -0.15187555275864
H         4.83521013919298   -1.27200574392428    0.59281508450639
H         5.51798331198384   -0.51090903633258   -4.22738584807974
H         6.95573764551696   -0.98309861053952   -5.00918341325597
H         9.44842315419770   -2.55533461054876   -1.31217836104660
