32
 energy: -49.229259506380 gnorm: 0.281969814113 xtb: 6.4.1 (79825abcba525fcdf90b791dcacef51065a7a4e7)
C         2.59277755684159    1.34928753880789    1.76507102101202
C         3.62830599968560    0.98265931271261    0.66940644811227
C         3.72030784246212    2.16359682616741   -0.35131364212457
C         4.42844333168349    1.95149331753240   -1.75234247838473
C         4.38717815217705    0.32342274784850   -1.59839032683400
O         2.95677802308888    0.14992464090379   -1.31033702523184
C         3.13438946531572   -0.31931168141724    0.05459672737818
C         3.99008894419624   -1.57254575343841   -0.24826490196947
C         4.65825194532826   -1.34813063358372   -1.63877345368309
C         3.83227242470571   -1.80683698185630   -2.82946088341587
N         3.32782211994636   -2.05400733107656   -3.95838818261332
C         6.08686953123074   -1.64472471200254   -1.83688983924696
C         6.90231396397941   -1.08365802088768   -2.80192100173442
N         6.45571156193425   -0.26884204959406   -3.77341565598248
N         8.21634169678798   -1.28783215940400   -2.56500044860354
C         8.46336114989794   -1.84145514472289   -1.40086404386148
S         7.04447586783643   -2.21894961042124   -0.51719092590064
H         2.95117575238276    2.23086704439175    2.31137345073569
H         2.55793059795212    0.49759624508393    2.45653903114609
H         1.61124204977612    1.57387639778464    1.32536097181136
H         4.54707407132579    0.90990146023378    1.25141033682965
H         4.24850830764274    3.04220788446614    0.03154845401677
H         2.67002756814554    2.41935648917661   -0.58143235737250
H         5.46472854575519    2.30982522118077   -1.79028200911102
H         3.86113749442114    2.37408830229238   -2.59722833652937
H         4.92152482553705    0.42037683725319   -0.63242509447150
H         2.16973235207461   -0.66442656715796    0.45006665689724
H         3.31563122069396   -2.43228882875633   -0.31213544992780
H         4.75660489079507   -1.70947893875526    0.52471001406503
H         5.44706475865222   -0.28077076605590   -3.89897897475338
H         7.09251610514426   -0.18195400524326   -4.56031620728632
H         9.49237121217143   -1.98242505280479   -1.09811475237378
