32
 energy: -49.228535719306 gnorm: 0.285676008506 xtb: 6.4.1 (79825abcba525fcdf90b791dcacef51065a7a4e7)
C         2.51355334182828    1.26595116948094    1.86936743820727
C         3.50330566128747    0.96064874958962    0.71420638944091
C         3.71110832259045    2.19503582980165   -0.22283888499896
C         4.44358591310938    2.04531770093406   -1.61940131896251
C         4.33326350505271    0.41415196219367   -1.56331972133855
O         2.88149626779634    0.22999409111138   -1.43073544540030
C         3.05580408035043   -0.26253200769689   -0.07360334820725
C         4.00677038203778   -1.45667525832318   -0.32703460941660
C         4.66925775284741   -1.23853303529869   -1.72125211225727
C         3.83047537083716   -1.81980709132829   -2.84773105292132
N         3.28295915926120   -2.34969805003171   -3.85246071707608
C         6.10173895108580   -1.56602817897897   -1.81564960463360
C         6.94539479017412   -1.13779083225872   -2.82356239528646
N         6.57999218340238   -0.42897432295721   -3.90580115165763
N         8.25506973891504   -1.41601109772113   -2.64514624242370
C         8.49429041965387   -1.94284124644159   -1.46703162525999
S         7.09045026853283   -2.07930014170270   -0.49377549490678
H         3.01848071419680    1.90107988718284    2.60810818900871
H         2.19366347355972    0.38681748309508    2.44340124642073
H         1.60847111843256    1.78307656007094    1.52208580298957
H         4.42766194210618    0.75596787455605    1.25441765301359
H         4.28468707928577    2.85455342253423    0.43562938582171
H         2.72772256273614    2.65221560266976   -0.43590081434997
H         5.50249799374795    2.30954611270185   -1.73172566458127
H         3.75993618776161    2.42072207338360   -2.39782868267684
H         4.98577927123204    0.35471888893578   -0.66961609043080
H         2.07158675347947   -0.59372810412770    0.28373332362744
H         3.43145560335729   -2.38613178575913   -0.38408106589218
H         4.86359156336173   -1.44643476336212    0.35819543994154
H         5.62384477389605   -0.38945613886642   -4.24857987945403
H         7.28269219325354   -0.28637046053829   -4.62563367992860
H         9.49268176862380   -2.09467937566248   -1.07902227702989
