32
 energy: -49.228022996184 gnorm: 0.288492316494 xtb: 6.4.1 (79825abcba525fcdf90b791dcacef51065a7a4e7)
C         2.62275702190591    1.38418520863152    1.89111821084662
C         3.56190811453139    0.98638473966461    0.72194487805911
C         3.41880783023170    2.20207254309328   -0.25097481562568
C         4.13464972464240    2.12636270375255   -1.66206091261510
C         4.24961996203803    0.49583390604431   -1.59744258703253
O         2.84001248056701    0.17778385964879   -1.33103736950275
C         3.10742871929975   -0.28610515369761    0.02102336842071
C         4.06296214907741   -1.46656756481359   -0.27563598734708
C         4.77836546484265   -1.11330396719320   -1.61493465186082
C         4.07600892680783   -1.74820290289495   -2.80404729632806
N         3.50297144509532   -2.19205300320368   -3.83587348123881
C         6.22038246527032   -1.38491968021089   -1.73732017716950
C         7.03602352638703   -1.07242859745532   -2.80881892563069
N         6.66984402439930   -0.36821238897598   -3.89379483921773
N         8.28382447906606   -1.57873009540319   -2.70327800952619
C         8.47350047819756   -2.18257682376766   -1.55344204957688
S         7.08938993925312   -2.29090942294805   -0.54889351383250
H         2.91973416899140    2.17572258092486    2.59065462740471
H         2.21743022850350    0.58845539103122    2.52927542270684
H         1.71596061985341    1.83735127624708    1.46737555840113
H         4.55990615372677    0.92604491057609    1.15612919611147
H         3.77458517397580    3.10525188704797    0.25422421745376
H         2.36430414160210    2.34265615977570   -0.55049860619360
H         5.12943688481320    2.58903185520904   -1.65406296213401
H         3.53788590723213    2.44868434958030   -2.53052867284408
H         4.88514716928597    0.57604540479358   -0.69318234735452
H         2.14937699933625   -0.68734081559571    0.37768980026795
H         3.45205363340636   -2.34358701184739   -0.51176837859604
H         4.81673623263810   -1.71624042866394    0.48151374028779
H         5.69502309483938   -0.22073849720128   -4.14128709606074
H         7.28072488501706   -0.41125099338973   -4.70450704793130
H         9.36318602879734   -2.73086379577692   -1.27374153982159
