32
 energy: -49.232476360732 gnorm: 0.280575230839 xtb: 6.4.1 (79825abcba525fcdf90b791dcacef51065a7a4e7)
C         2.40530966415274    0.95437592385117    1.98910663633876
C         3.48504713682991    0.72047519036959    0.89976109527289
C         3.72668635732609    2.07844156497017    0.16322523742877
C         4.46800651136653    2.20532572828982   -1.23093056789931
C         4.39260104029978    0.59253383524124   -1.49405445632433
O         2.94713018958341    0.38631655794377   -1.32910210187267
C         3.04716405370586   -0.35644262913236   -0.08287791756500
C         3.98514841641415   -1.48477553441861   -0.57439862519487
C         4.71646860150569   -1.02641514915011   -1.87262608974484
C         3.94389371915812   -1.42797651002076   -3.11852607116282
N         3.13443721174758   -1.60015621986886   -4.06993263564475
C         6.14778307312461   -1.36249850359460   -1.95357806766859
C         6.97305758224341   -1.77106696668726   -2.98460880705261
N         6.72206021270804   -1.89463536086972   -4.29948971618658
N         8.27271219195507   -1.89698659678030   -2.63887848073803
C         8.47088339321066   -1.59756732765269   -1.37641784004727
S         7.08377626503538   -1.04531520178241   -0.53524776115914
H         2.79515609641961    1.54218496186632    2.82968877414951
H         2.08249213416603    0.01312977889846    2.45231816097594
H         1.48386123886014    1.34957043123224    1.53971689903862
H         4.37764576423582    0.39728727968332    1.43546088874456
H         4.29983326418665    2.63544529184915    0.91074512400176
H         2.73078174510639    2.52781783358272   -0.00318166162391
H         5.49087740240739    2.59649289193800   -1.29765085136129
H         3.81418154499257    2.74699291512794   -1.93332940242764
H         4.91229181154924    0.48252968663725   -0.52151351541669
H         2.04108977554213   -0.73544849201979    0.14124972748529
H         3.35041086183404   -2.33135320896370   -0.85465798894229
H         4.72948791701837   -1.74011124563517    0.19016007437080
H         5.76387916422328   -1.79775211242813   -4.62472736510186
H         7.29632547047050   -2.56222383099698   -4.80627081580010
H         9.39731922091912   -1.82743754930319   -0.86723447705053
