32
 energy: -49.231687148145 gnorm: 0.282802062362 xtb: 6.4.1 (79825abcba525fcdf90b791dcacef51065a7a4e7)
C         2.47004356114333    0.65045390957281    2.03462777504574
C         3.48836397446471    0.68198856675510    0.86448018946618
C         3.58387800592301    2.09741265706883    0.20690968281744
C         4.43303155024371    2.29851632168780   -1.11514218702233
C         4.46263435020537    0.69249560842404   -1.42472093634620
O         3.01004246380131    0.48763841660664   -1.34027467585404
C         3.02190968085517   -0.35060429437305   -0.15200659685639
C         3.95295836585889   -1.44440073456589   -0.72759334300847
C         4.77996596569099   -0.89323327409869   -1.92867237951211
C         4.05292301737285   -1.04159987443535   -3.25524169252155
N         3.31493697812383   -1.06030354757489   -4.27752683783847
C         6.19694147837652   -1.28585515131896   -2.00737952084427
C         6.92817254252739   -2.07219549858942   -2.87801180985887
N         6.35513209329517   -2.78730810096853   -3.86158653850592
N         8.24683135005399   -2.11006992795488   -2.58785359666325
C         8.51024214692671   -1.49923623622869   -1.45638218937906
S         7.17023507226670   -0.77137802220919   -0.67457712612620
H         2.78732008458311    1.35900355957058    2.81010894026505
H         2.48563243602552   -0.39370039450050    2.37259102173701
H         1.49126420833904    1.01865031799101    1.69755297829945
H         4.41245361849347    0.44798646910783    1.39311839412630
H         3.99108198009820    2.77270047630330    0.96566378905590
H         2.55523618657968    2.43352798701836   -0.01754248563604
H         5.40886612515757    2.72948709731209   -0.85874546761826
H         3.85662247897657    2.84935768150880   -1.87578726186756
H         4.97224892554418    0.42908872733922   -0.47660433349868
H         2.00742129494610   -0.70826959909753    0.06924651822894
H         3.34374970391201   -2.30708002987092   -1.01530859514658
H         4.62220581586097   -1.84283934474534    0.04515638529943
H         5.50633654155818   -2.43976801472971   -4.29980887209450
H         7.07747808161180   -3.23896698282315   -4.41521327743465
H         9.48907864072026   -1.36047717170171   -1.01704587329085
