32
 energy: -49.233161445279 gnorm: 0.278084733985 xtb: 6.4.1 (79825abcba525fcdf90b791dcacef51065a7a4e7)
C         2.40851179843382    0.90269311495519    2.00035431800876
C         3.38162920442471    0.77975013420610    0.79821297600596
C         3.60390920759502    2.16959378987040    0.11713040569921
C         4.39356276441349    2.20392490737111   -1.25567482527037
C         4.46790740133022    0.57647097084298   -1.40360864054816
O         3.01418957021471    0.36240302767811   -1.40314520883453
C         2.98558971233516   -0.35353018819369   -0.13768308791215
C         3.95224508518446   -1.48880556539587   -0.55153042617479
C         4.77130137191771   -1.04206074449894   -1.80048353110134
C         3.92836420689143   -1.29187879036034   -3.04041825145088
N         3.32168428673120   -1.44955321474843   -4.13454730517536
C         6.19318442071790   -1.41748137050784   -1.87447196219332
C         6.97346102874809   -1.81880649394801   -2.94271216934802
N         6.53717925544806   -2.02465645563256   -4.19748889630250
N         8.27983541921848   -2.02387485510933   -2.66735744419042
C         8.55038621856357   -1.55286266128910   -1.47250164950983
S         7.20933770056578   -1.07530941213676   -0.51848515914040
H         2.80427729136489    1.58663183323969    2.76171858044793
H         2.22837374324055   -0.07617964574201    2.46304079784296
H         1.39720486416096    1.24928338762562    1.74671973430534
H         4.32822067197941    0.48952405781288    1.25416299731758
H         4.06473703356098    2.84940720866315    0.84033711086379
H         2.56342810171677    2.52470946148438    0.00422243139061
H         5.33635730972063    2.74644586749045   -1.11236517451195
H         3.79738653820929    2.66874755130874   -2.05740318688221
H         5.00300675607092    0.50718258415809   -0.43568142755307
H         1.99171315306537   -0.77289092890424    0.06825392068116
H         3.30849805032363   -2.31054117412292   -0.88088005214487
H         4.68932311898867   -1.82371207247799    0.18897023182099
H         5.54688330238085   -1.98039042541602   -4.42250279254659
H         7.11813285553741   -2.49423572508674   -4.88616171771995
H         9.53650862433515   -1.58669209517161   -1.02886944954029
