32
 energy: -49.227950221361 gnorm: 0.282975194953 xtb: 6.4.1 (79825abcba525fcdf90b791dcacef51065a7a4e7)
C         2.14784918755128    0.72606607779973    1.89495365496773
C         3.37145746856606    0.65609278689594    0.94358475455419
C         3.63742825549622    2.07967604668765    0.35399379458905
C         4.57188419256584    2.26067442647385   -0.91224364735602
C         4.51059847532002    0.67703431689163   -1.31763965992143
O         3.05020582040817    0.51504879289951   -1.32925065093944
C         3.00687648510153   -0.33658947760446   -0.15128311076495
C         3.98077809473375   -1.45357076716792   -0.59671645960104
C         4.74023805985113   -0.91542788993732   -1.84729264770846
C         4.09416891825133   -1.00390520438516   -3.22030272798565
N         3.49966602541560   -1.23314252096647   -4.30844642652581
C         6.14818935812568   -1.32789044612503   -1.97264875956067
C         6.82746297779393   -2.13333691938541   -2.86756435686829
N         6.34520749542849   -2.99025989635011   -3.78423948972831
N         8.16694965789315   -2.08676294479465   -2.69995285378709
C         8.56993488805988   -1.37176812828417   -1.67568926089796
S         7.26488668005854   -0.61717387980214   -0.86079516308461
H         2.25070831567935    1.51919223540409    2.64625182101676
H         2.01249409563319   -0.28671154962718    2.29580382186617
H         1.20338407524567    0.99845891211346    1.40405159685471
H         4.18305439688623    0.18757715475471    1.50032574700322
H         4.06183212351706    2.67442707496588    1.16866494304055
H         2.64706338936117    2.51431924493941    0.12657566531422
H         5.55627078007104    2.63781584256293   -0.60814562947104
H         4.10139469804759    2.80532279321739   -1.74666101615315
H         5.04242032485118    0.39476552842269   -0.38731437005047
H         1.98344432710341   -0.70823303619464   -0.00799395785309
H         3.50023527279337   -2.39868746541118   -0.86867942036891
H         4.74487752871678   -1.68098042612562    0.15709023003136
H         5.59749262592552   -2.53643855660625   -4.30216369824790
H         7.10479903610085   -3.21807177543031   -4.41938079705235
H         9.58907381430276   -1.33554048069697   -1.31453172725263
