32
 energy: -49.175368131910 gnorm: 0.298926917838 xtb: 6.4.1 (79825abcba525fcdf90b791dcacef51065a7a4e7)
C         2.73501654450798   -0.01850886714628    1.97155233080050
C         3.54589704501184    0.28757672432656    0.68469542648493
C         3.76775375072897    1.81583999694999    0.43946446174808
C         4.21352291277778    2.35960170851907   -0.98002087584810
C         4.34715803767544    0.86738101150437   -1.63685943602210
O         2.90511892642582    0.58530793099301   -1.64573653743842
C         3.04953086496362   -0.39551531781364   -0.58182693323056
C         3.91470284955865   -1.42360419182791   -1.34932489222745
C         4.86826903541624   -0.61153221788356   -2.27753210898374
C         4.24596831455684   -0.71973591073422   -3.66007469651702
N         3.25772249927401   -0.83732000656824   -4.43440300633375
C         6.31448899189066   -0.85488106884320   -2.14564005702284
C         6.56944799396262   -2.19353539702258   -1.91319412734250
N         5.91604609279563   -3.25522809131223   -2.41624006971975
N         7.81150304735614   -2.44221944285206   -1.44421351558827
C         8.46301891720877   -1.32674602806313   -1.21188459643957
S         7.61294467120782    0.12124011378697   -1.55441285633884
H         3.42430038981637    0.34637915230381    2.74344775789429
H         2.74902230988596   -1.10707710818084    2.11135005017821
H         1.78528927863021    0.53073144698069    1.91196850361611
H         4.51187156783575   -0.17494075008410    0.88749535453145
H         4.53140496544493    1.96204723656080    1.20952729954741
H         2.79766445721597    2.15134316082162    0.84912367618977
H         5.22048650495152    2.79081278830420   -1.04174232397042
H         3.51797799861969    2.97204083730973   -1.57616694396630
H         4.82968910825168    0.42072896821014   -0.74484989740971
H         2.03349205285668   -0.75564361405267   -0.37197736834623
H         3.10082353458235   -1.94084297741666   -1.86720067557554
H         4.41013634304274   -2.15123484089222   -0.69443031397208
H         5.11457072537423   -3.19513577416000   -3.03857676400349
H         6.17000928248613   -4.10712159500734   -1.92424190509622
H         9.48180640137518   -1.37635251620624   -0.85132583786163
