32
 energy: -49.232182910019 gnorm: 0.272733237640 xtb: 6.4.1 (79825abcba525fcdf90b791dcacef51065a7a4e7)
C         2.06380797714775    0.96326699226725    1.73559804780762
C         3.36405298136947    0.71887414694786    0.92513439242696
C         3.71359684117159    2.09112774366781    0.26204585310062
C         4.46524808178801    2.22312180570805   -1.12609086526468
C         4.50925869984432    0.60605779876222   -1.36937037161932
O         3.05528625650978    0.40302459547160   -1.30722149659548
C         3.09270825671214   -0.38595274473716   -0.08620263892148
C         4.11449913297238   -1.46787425949228   -0.51038615070390
C         4.79288699216947   -0.99822530888059   -1.83308708983435
C         3.94232564289191   -1.27802684914477   -3.06135689224606
N         3.18340128735396   -1.49277705329964   -4.04520459475065
C         6.21721054007631   -1.36902560891356   -1.87753831579770
C         6.91780562110126   -1.80523648182928   -2.98655463584577
N         6.40225883439622   -2.20459068362386   -4.16210062214455
N         8.25612373911697   -1.90633330190507   -2.83433321601041
C         8.58888081170836   -1.58859214235165   -1.60508796826685
S         7.32372740168493   -1.02923022505188   -0.59359560942901
H         2.18004376886490    1.90151906939494    2.29259923003780
H         1.90256473528583    0.14690656005994    2.45133308340176
H         1.15370955100134    1.01800068531449    1.12247317269204
H         4.07399804869967    0.40274963509897    1.68946435861227
H         4.23274530608651    2.72095654139985    0.99097456367441
H         2.75522309043611    2.59131729483039    0.03229283295268
H         5.48076984315972    2.63838504775135   -1.12653597524234
H         3.85632483726669    2.75882504635143   -1.87207281511665
H         4.98171624166314    0.39799351176215   -0.38880501654570
H         2.08430787585351   -0.76381104019227    0.12924080415130
H         3.65097732619122   -2.45556761524141   -0.59836453631972
H         4.86513112310233   -1.54676922191987    0.28592711817254
H         5.42308125516534   -2.01215084989003   -4.35563354295228
H         6.94185522038826   -2.86407647368464   -4.71545066161791
H         9.57280288717595   -1.64665163668818   -1.15908594691825
