32
 energy: -49.226909446290 gnorm: 0.279664561821 xtb: 6.4.1 (79825abcba525fcdf90b791dcacef51065a7a4e7)
C         2.63656765258847    1.32609257231309    1.95963263335143
C         3.55982662737881    1.04367079336723    0.74511747393461
C         3.53613098153883    2.23448314266088   -0.26797270871831
C         4.26066538811969    2.06001127793383   -1.66580496841893
C         4.30728116060084    0.42636448696172   -1.59479107191276
O         2.87007168693396    0.26802727358112   -1.33310598949947
C         3.02913065984262   -0.19452867531176    0.03638841945008
C         3.96546753885566   -1.39250397414146   -0.25113693965645
C         4.65142990188230   -1.23151284872309   -1.64176825708414
C         4.11015537458119   -2.00883131808526   -2.83054413589784
N         3.76010593153890   -2.54926419150815   -3.91472023747389
C         6.11098329943291   -1.40316545416742   -1.73345041433365
C         6.88096559069582   -1.02327028435775   -2.81688824427904
N         6.46855174912521   -0.27968245395741   -3.85812433679300
N         8.18535486118999   -1.34494978911040   -2.67696597177777
C         8.48386269124040   -1.94983927390236   -1.55102974931309
S         7.09489308499545   -2.25322573425697   -0.59429792491084
H         3.15169810856567    1.96997567178863    2.68360307705019
H         2.30858304806604    0.36732514806388    2.38142820544468
H         1.74750988086667    1.84698884177176    1.57826615622592
H         4.57597847756598    0.90970362192766    1.11612315596910
H         4.00888704734013    3.03904769983878    0.30361637712263
H         2.45522232191800    2.40696786777594   -0.42075284664799
H         5.26620567970986    2.49823545015792   -1.68981537961509
H         3.67998893473541    2.28902625599889   -2.57389171927215
H         4.92963285906676    0.47884698642504   -0.67940085633876
H         2.04947315905469   -0.61706506540296    0.29676943765704
H         3.43938035470081   -2.35046677200582   -0.31172059082240
H         4.78575189640330   -1.56730511886410    0.45622841700601
H         5.49642316684113   -0.48690292850109   -4.07096820845536
H         7.10429319468065   -0.34850429227624   -4.64766750079777
H         9.47778994126694   -2.33604318835216   -1.36841946615564
