32
 energy: -49.230959165405 gnorm: 0.281115148675 xtb: 6.4.1 (79825abcba525fcdf90b791dcacef51065a7a4e7)
C         2.24653012720170    1.33482139866320    1.78526234969996
C         3.37615531348148    1.01785929144031    0.77002925756395
C         3.52240151357553    2.27813478186341   -0.14389907257197
C         4.45396725691572    2.19116669273554   -1.42215858675631
C         4.43904077668877    0.55541182823549   -1.41210519014871
O         2.98304760658731    0.35877826306937   -1.38886826161230
C         3.04344142355467   -0.21733659694679   -0.05499534599446
C         4.04734833503888   -1.37681486056074   -0.26072206156989
C         4.82141404257790   -1.08593872745370   -1.58228603940032
C         4.04726197097030   -1.66507542004506   -2.75517968342241
N         3.51021126023586   -2.28854670675679   -3.71063780817633
C         6.25459722254029   -1.37822803719742   -1.75175368670343
C         6.94223558934494   -1.31830517768940   -2.94949878975807
N         6.50676824179189   -0.62325463652453   -4.01460609853171
N         8.21665949106620   -1.76522145766242   -2.92506776195477
C         8.49980926597723   -2.21286399192559   -1.72416270239550
S         7.24366374678418   -2.14683831936469   -0.56039522420579
H         2.41010027173770    2.29320145689786    2.29401622735566
H         2.29583689406450    0.58149815234816    2.58200152215611
H         1.23873588049533    1.36628713129538    1.34873319966900
H         4.17998390959384    0.75428461700357    1.45744833084053
H         3.77271362463753    3.15369706533320    0.46295432191746
H         2.48550268773108    2.39300867956717   -0.50872930137552
H         5.47203808742769    2.59948864793638   -1.39906813179333
H         3.91059971321147    2.70350593086175   -2.23241457233271
H         4.89657651968195    0.52801597060165   -0.40318209961532
H         2.07538213903490   -0.65780725748947    0.21870324209443
H         3.45353932806925   -2.26866401029222   -0.48461218875072
H         4.70166030163569   -1.65473785759962    0.57499456153820
H         5.50158888397078   -0.62825493217277   -4.16582207924024
H         7.07626798678680   -0.67939887426085   -4.85412971466788
H         9.50779774320981   -2.54653729034360   -1.51676762071359
