32
 energy: -49.230433458561 gnorm: 0.281337057683 xtb: 6.4.1 (79825abcba525fcdf90b791dcacef51065a7a4e7)
C         2.24444910178101    0.75492140483685    1.95950895313023
C         3.32756365637017    0.59534382087087    0.86013907605189
C         3.56903291737017    2.05082027778706    0.34223161636446
C         4.37485739620875    2.27628768018810   -1.00280999336141
C         4.42524901383212    0.68097963343257   -1.36123820296268
O         2.97046114871926    0.47456070892574   -1.37145197945285
C         2.96981161994322   -0.41482384029712   -0.22090106681110
C         3.99292958760021   -1.46664549191364   -0.71226982049001
C         4.81704010285875   -0.87738625349690   -1.89714678029716
C         4.16555321370209   -1.02763455899064   -3.26220374611068
N         3.39722396930779   -1.17078469413843   -4.25175836943992
C         6.24519326058731   -1.23321571619824   -1.85321149472744
C         6.85109803700275   -2.02924359505529   -2.80728152614189
N         6.29640031942346   -2.63918353430864   -3.86910276957311
N         8.16802677685918   -2.25030192197121   -2.60401020447320
C         8.63892407295384   -1.56622305841225   -1.58763309040952
S         7.46961342936439   -0.56887548313702   -0.82959210887725
H         2.60515257614304    1.19952544599560    2.89561700577835
H         1.87655940673091   -0.23382949292975    2.26241028032568
H         1.37955018688911    1.29668450830104    1.55252044979814
H         4.26758602532860    0.23563505024815    1.27861792957372
H         4.08843650320879    2.64470357586340    1.10055809785640
H         2.58063431165805    2.52054309418187    0.18768403304085
H         5.41314356419688    2.62749743125927   -0.95441832782654
H         3.73734876823587    2.80666111974897   -1.72844166025801
H         4.94495339255836    0.46476607401931   -0.40668367486386
H         1.98343374281900   -0.86210331390515   -0.03906637747393
H         3.43041409601221   -2.34975960357593   -1.03135698069729
H         4.70974751044091   -1.74578094661157    0.07006200592822
H         5.28406919734123   -2.70703455945249   -3.93122162597209
H         6.82447588146838   -3.40457946689613   -4.27847705224908
H         9.61218392094184   -1.68405938506263   -1.13017136875511
