32
 energy: -49.228874870084 gnorm: 0.284423120006 xtb: 6.4.1 (79825abcba525fcdf90b791dcacef51065a7a4e7)
C         2.53180915041001    0.79964145406930    2.04438340862509
C         3.48594738039935    0.65397839278340    0.82963290717927
C         3.71654057997503    2.08541825681200    0.24418098857879
C         4.43808764073328    2.22797882551927   -1.15880578879038
C         4.37336131388596    0.61491974078158   -1.42313279278501
O         2.91469480429439    0.45788623808642   -1.34095420236148
C         2.96877384291954   -0.38396179499388   -0.15641207678990
C         3.86961852222264   -1.53348559925639   -0.66789648368102
C         4.69539560747939   -0.98641998645743   -1.87169439552679
C         3.96577626675706   -1.23770767997870   -3.18123643664568
N         3.53167409515599   -1.38661772241675   -4.35572408941036
C         6.15082316486184   -1.19470898527493   -1.95239560534281
C         6.88859834589623   -1.86081170835677   -2.91313779014735
N         6.46095434362901   -2.39381176802337   -4.07081312521162
N         8.19694935952276   -1.99138831447898   -2.60385686574598
C         8.46235479039765   -1.60547259329437   -1.37774120809402
S         7.15082386126122   -0.83437950957730   -0.58912357268788
H         2.70291746509755    1.74901854010384    2.56733955344625
H         2.57235936212311   -0.01139652441078    2.78282328906932
H         1.55284708707872    0.88650130975267    1.55317502161829
H         4.46039538953387    0.40092348763509    1.24745020703804
H         4.33277853980355    2.70139193902935    0.90627139712043
H         2.74814032346087    2.57599905964786    0.03684622824049
H         5.47006929156377    2.59448116677862   -1.09233688079450
H         3.78564287178376    2.71678497870770   -1.90018215939055
H         4.89791281335413    0.44022964769174   -0.46274516910296
H         1.98639687447707   -0.73736361153071    0.18433232173182
H         3.32393224898404   -2.44581102870882   -0.92870221012201
H         4.55449270846476   -1.84631952938469    0.13014480744271
H         5.56486927548938   -2.13083278297947   -4.47224856971919
H         7.17843256698638   -2.89309573687720   -4.58871519481464
H         9.46079256322215   -1.51480443045286   -0.97117921211073
