32
 energy: -49.232655013393 gnorm: 0.283356962898 xtb: 6.4.1 (79825abcba525fcdf90b791dcacef51065a7a4e7)
C         2.38816098034618    1.41242391237265    1.82138056835359
C         3.39568315894566    1.02781071391667    0.70594880638664
C         3.49934123868745    2.26299693176893   -0.24721291311070
C         4.30747223345594    2.06292822498025   -1.59488586144783
C         4.37119233751613    0.43248095741066   -1.47826979625370
O         2.93513422500530    0.14675122818293   -1.35491483590229
C         3.06571572097572   -0.29301582411709    0.02505839322845
C         4.08977364655035   -1.42364782590505   -0.23478588506548
C         4.76599461571812   -1.20838225801091   -1.62284349337745
C         3.97122782116529   -1.83870158680819   -2.75484769624718
N         3.49010788886169   -2.40978712389299   -3.77093088933848
C         6.20062702302222   -1.49081294660798   -1.79670869919270
C         6.98303703492602   -1.08257216294594   -2.86075974709174
N         6.49212919441717   -0.38947476543241   -3.90277996237158
N         8.30382364106762   -1.33302071303517   -2.72928512342638
C         8.52415229037922   -2.05197761414509   -1.65351244586111
S         7.16280180982701   -2.37297017503734   -0.66340924801711
H         2.69097941188564    2.43510488301137    2.07926167714471
H         2.51409030108790    0.77813472097780    2.70825113776019
H         1.36056136165474    1.32895811189206    1.44155229323721
H         4.36563483957244    0.91422433933841    1.19014801751187
H         3.91300499635191    3.07958326938342    0.35245829403929
H         2.48469259114298    2.55630412855629   -0.57265921069358
H         5.29208804981688    2.54693152289093   -1.59404633957604
H         3.67400950897382    2.30451341658347   -2.46357229707264
H         4.90950714470938    0.50763799476817   -0.51256597132351
H         2.09664421812361   -0.67156682186830    0.37671683622614
H         3.68854529292052   -2.43808324311308   -0.14496708422130
H         4.92186016101774   -1.40577827801738    0.48012693029219
H         5.52991439420931   -0.07307105642717   -3.81729202771420
H         7.11585618408414    0.08951339425676   -4.54606607205964
H         9.47305123349690   -2.32078558982762   -1.20885029691869
