32
 energy: -49.230522238030 gnorm: 0.281635251138 xtb: 6.4.1 (79825abcba525fcdf90b791dcacef51065a7a4e7)
C         2.59890972246493    1.05718859918106    1.98300067474809
C         3.56898696293116    0.72548334021071    0.81846727488384
C         3.78696292871031    2.08747830330026    0.08198682295635
C         4.35506504295746    2.15513160120787   -1.39517552138240
C         4.31540783144251    0.52935268937176   -1.57205994684891
O         2.87526413976360    0.34188313025544   -1.34853782846888
C         3.01742810038970   -0.36696046310667   -0.08675224055900
C         3.88362541839170   -1.55746615793917   -0.56313529238127
C         4.68309139929179   -1.10502709353837   -1.82268721453739
C         3.96862851523966   -1.49304822492197   -3.10696624993275
N         3.25340926950043   -1.78654073332773   -4.10314079470485
C         6.11807457319911   -1.43460683763990   -1.84184070281460
C         6.96069888235499   -1.60917398478550   -2.92375622331042
N         6.58878657547806   -1.49647481713583   -4.21067532574272
N         8.27472522096840   -1.67151336369691   -2.61726657851876
C         8.46314196060886   -1.67651842795551   -1.31834214860887
S         7.06571986892248   -1.29489731880951   -0.40281359946207
H         2.99025238769693    1.90036369771006    2.56608275126166
H         2.47103030016998    0.18225188878719    2.63327214556129
H         1.60578831421480    1.23239194102785    1.54686916620291
H         4.52857538244865    0.45663564222069    1.26013228880034
H         4.44358622131814    2.71602864452530    0.69133633617651
H         2.77625769088648    2.52958792891322    0.01512663215352
H         5.42283021850193    2.39478144241733   -1.47374838861331
H         3.78460919633919    2.75364823635257   -2.12360706466929
H         4.98211515447043    0.41569979622390   -0.69422188571931
H         1.99123323188379   -0.59863902049859    0.22838778458196
H         3.24108443390055   -2.37527022981413   -0.90440998658357
H         4.68814224371914   -1.93964516457244    0.07755145753765
H         5.59229651722855   -1.63310399809390   -4.35770201799855
H         7.21052711305242   -1.83432916728213   -4.93976734836794
H         9.43873009610104   -1.61765630480682   -0.85449476081208
