32
 energy: -49.228199790100 gnorm: 0.284970384830 xtb: 6.4.1 (79825abcba525fcdf90b791dcacef51065a7a4e7)
C         2.48518988299780    1.07060075853631    1.97223320953159
C         3.47734549301282    0.68249896502718    0.84430567929797
C         3.94167151531890    2.05272953926968    0.25116423446855
C         4.53918179336804    2.17467201477714   -1.21083339540372
C         4.32578936434624    0.58015833796712   -1.50749424215032
O         2.86418353648785    0.46632508786217   -1.40814025124181
C         2.89148622710396   -0.29208324275057   -0.16763871300258
C         3.84551776368488   -1.43535017766414   -0.58871703269664
C         4.63828599972999   -1.04407579284902   -1.87275008032256
C         3.90312895546329   -1.42472619062072   -3.14752049735327
N         3.37063134051670   -1.87169961500252   -4.19951915656232
C         6.06530161823406   -1.40645381028150   -1.89454320381578
C         6.91322548033398   -1.73087113689813   -2.93704457475243
N         6.56143896280650   -2.15812911726460   -4.16214763107930
N         8.23005633699673   -1.78039884271679   -2.64041212300217
C         8.48139660279792   -1.50154018399377   -1.38271720370897
S         7.05992038100925   -1.09862037701101   -0.51457166608760
H         2.90108062620766    1.93940057140650    2.49787549396604
H         2.36703343402344    0.25051559898162    2.69210803481050
H         1.45609341326343    1.24028138614965    1.62673939555923
H         4.26892591073350    0.15475192087941    1.37632119002829
H         4.75272806028835    2.47943820451517    0.84919726417430
H         3.07603454293794    2.73982965084406    0.24643646420282
H         5.62313212690033    2.33196680228224   -1.27438049398535
H         4.01625162825470    2.86352903389446   -1.89367642055153
H         4.83864021670193    0.36775509218271   -0.54838832354906
H         1.94228291922747   -0.77056560283979    0.10828121766563
H         3.24325564007852   -2.32901705403699   -0.78047384903488
H         4.58072836337642   -1.72161852607155    0.17371553930385
H         5.80598622653156   -1.65404726849010   -4.61873219921621
H         7.38740563686460   -2.17745877314688   -4.75349140318343
H         9.47806736319239   -1.44906796980488   -0.96524215128814
