32
 energy: -49.229383020189 gnorm: 0.284349741115 xtb: 6.4.1 (79825abcba525fcdf90b791dcacef51065a7a4e7)
C         2.62263081436245    1.32074773360922    1.84142549987140
C         3.58130730252481    0.90876640758710    0.69319771446093
C         3.70976954936165    2.21706218367849   -0.15344676035948
C         4.15214854136319    2.04084086695967   -1.66426522757716
C         4.22403019073016    0.40677526557612   -1.63817900657374
O         2.81365197057765    0.08820650170638   -1.37651501095463
C         3.06060232827364   -0.33782163681614   -0.00819916790973
C         4.00189481464211   -1.51868552488364   -0.34594365919451
C         4.66128186679266   -1.22721181218653   -1.72817727820560
C         3.90286243553699   -1.95352965988616   -2.82710974846452
N         3.31784880404562   -2.54478017600384   -3.77485550022602
C         6.12445877929056   -1.37101535408362   -1.80941900476346
C         7.01043466786093   -0.91862118166717   -2.76932360220106
N         6.64054552852963   -0.30126126390366   -3.90476598232263
N         8.32212341359957   -1.15485535170456   -2.54988485516234
C         8.49677568868493   -1.83642254209360   -1.44187161495270
S         7.04531640887389   -2.21050811932188   -0.61124436068823
H         3.05106921037340    2.15691671417245    2.40829410271287
H         2.45420550295336    0.54808145887396    2.60256945558965
H         1.65325271768914    1.71150250115175    1.50258357207552
H         4.57270473769155    0.66444456751537    1.07476680054837
H         4.51460662010746    2.82709782040719    0.26801536072780
H         2.81687749335975    2.86813558581211   -0.13602600723245
H         5.16443932076594    2.40529874725064   -1.87912806448234
H         3.41390061563464    2.43534714105612   -2.38093066420422
H         4.92035312095085    0.41596809390286   -0.77616672860380
H         2.11976394136170   -0.69994838975654    0.42740551659784
H         3.45503702548128   -2.46588998725593   -0.30257214478493
H         4.75452422255828   -1.65665055322178    0.44037831268609
H         5.71560996361599   -0.45536933957277   -4.29722198793305
H         7.42829176232375   -0.30802870940953   -4.54639836365781
H         9.48549162142293   -2.10736458463889   -1.09629590369307
