32
 energy: -49.226067610937 gnorm: 0.285308324179 xtb: 6.4.1 (79825abcba525fcdf90b791dcacef51065a7a4e7)
C         2.76813355556975    1.13408482694634    2.08605450273583
C         3.57918685291486    0.87813571074952    0.78840321312160
C         3.60090241295210    2.17227580998659   -0.08890921514964
C         4.34307725289358    2.13581122801743   -1.48789899836672
C         4.29321643158123    0.50308655063734   -1.57588698577150
O         2.84165933601567    0.34810512014683   -1.40830542162218
C         3.02277124862575   -0.23483104160003   -0.08839761908928
C         3.92599898765609   -1.45087544079776   -0.40455910965234
C         4.61642145984621   -1.14839339499012   -1.76916140261844
C         3.85013327271917   -1.62840367136246   -2.99095630808356
N         3.43146572008481   -1.97745166013065   -4.12802408278131
C         6.05377166918292   -1.44074996539276   -1.89846093854402
C         7.00195555191109   -1.37568244154772   -2.90232553702871
N         6.75477809739432   -1.26089856956707   -4.21872540111862
N         8.29067714578201   -1.61955871329504   -2.57951239001229
C         8.45257124955317   -1.76624804534292   -1.28529327028983
S         6.96043648234577   -1.68306073137542   -0.44670552811016
H         3.04833132184721    2.08955655377988    2.54718466582521
H         2.83980970950803    0.28871698243109    2.78242804894539
H         1.71557185834960    1.22918187796343    1.78560906709998
H         4.58254387886688    0.56828940015061    1.08068209927914
H         4.12241648657476    2.98721650578621    0.42239425925530
H         2.55712335939308    2.47513928197824   -0.28954642135452
H         5.35310928689293    2.55813872648112   -1.41576731244914
H         3.74041318163561    2.64072696959055   -2.25998102780855
H         4.82424636262242    0.42942048451562   -0.60604379351725
H         2.05604389857826   -0.57909966676449    0.30273080468261
H         3.30363109993624   -2.34768765536837   -0.48528638064621
H         4.75644534361992   -1.52198975509598    0.30894578121428
H         5.82170956556956   -1.11128681687836   -4.59326011174362
H         7.39118225821555   -1.72593990847357   -4.85982471559321
H         9.40847739077939   -2.04964425929636   -0.86538686141656
