32
 energy: -49.236108654980 gnorm: 0.272820101391 xtb: 6.4.1 (79825abcba525fcdf90b791dcacef51065a7a4e7)
C         2.55353944006741    0.98506658080179    1.99685709457102
C         3.51409268919100    0.83739903509568    0.78741589154757
C         3.62208602613846    2.21239448272713    0.05075299991186
C         4.29677188703691    2.26699903026594   -1.38142816961204
C         4.36090873892563    0.63888084064954   -1.52680860345623
O         2.92004581124652    0.36501800552388   -1.43717601329750
C         2.99732372146254   -0.26347887431450   -0.12805703532414
C         4.01982456477118   -1.37515838497644   -0.46451373410909
C         4.72226771947547   -0.99283911004455   -1.80269294054667
C         3.95265944997147   -1.44140127487359   -3.03431192732948
N         3.42138376801299   -1.87823660591854   -4.09117576915684
C         6.12338025548818   -1.44237362823051   -1.85717900216554
C         6.92701944565240   -1.65582270473322   -2.96154947394246
N         6.58520640872658   -1.58447041625023   -4.25972255050469
N         8.21634125451087   -1.91764858052914   -2.65563478289213
C         8.46905305981629   -1.80399021184457   -1.37268930029307
S         7.09761059110236   -1.39535434005356   -0.42993908124620
H         2.86052735124708    1.74492501786804    2.72654991660906
H         2.58776065326155    0.06797794893251    2.59893493815225
H         1.51525633935375    1.08221405793986    1.65084032352500
H         4.49241664135803    0.59516789202806    1.20258251209264
H         4.23929493120191    2.88485192888805    0.65440079430211
H         2.60653541586922    2.64259117739079   -0.02026844017172
H         5.33414593101041    2.62095941071537   -1.33351836075492
H         3.64815700074376    2.79045226534631   -2.10222632803810
H         4.93168723923454    0.58230347968302   -0.57863868252686
H         2.01867337303363   -0.65119485206195    0.18496678977422
H         3.52910507584137   -2.33313406544617   -0.66353084723281
H         4.75629597353198   -1.46239546037142    0.34405733815070
H         5.59570048861900   -1.66832056402842   -4.47680318561330
H         7.30508775952078   -1.96016248335944   -4.87038477238134
H         9.42415345971222   -2.11291841906514   -0.96928138314821
