32
 energy: -49.225665317268 gnorm: 0.281979117238 xtb: 6.4.1 (79825abcba525fcdf90b791dcacef51065a7a4e7)
C         2.54587618815370    0.78159760286667    2.07343506679186
C         3.54780101284410    0.61223089800379    0.90096850632401
C         3.67619178108724    2.05337203360204    0.30803065601223
C         4.48469523904866    2.21194172522767   -1.04493031168046
C         4.36082153511595    0.64515788992986   -1.49865002571437
O         2.91051748923598    0.43757926883167   -1.38617728724084
C         3.01773879674167   -0.33984428170823   -0.16188609853821
C         3.90863115784501   -1.45904867684363   -0.75200026795932
C         4.69082579013939   -0.93988848796909   -1.99657338646657
C         3.91065858806374   -1.09317097014708   -3.29204003602514
N         3.46667174905096   -1.12055056894656   -4.47194095444623
C         6.13344004140307   -1.23465453259833   -2.00855031393846
C         6.88443722577521   -2.06806222767694   -2.81630363458083
N         6.46702159492552   -2.74491426512610   -3.90019299240906
N         8.19880836980319   -2.11058237980215   -2.50790804035696
C         8.46609895546012   -1.38944433583574   -1.44430743117709
S         7.09833136679305   -0.69656676126741   -0.67896555549570
H         3.06167776260678    1.45813569737555    2.76648844075362
H         2.48732797638129   -0.20952166922012    2.54138279368502
H         1.59116447015306    1.22235034144689    1.75490784030303
H         4.47761142539143    0.27179423178987    1.35672334863800
H         4.09867952472177    2.73823191207877    1.04965560277085
H         2.66248500305937    2.36639155741701   -0.00160401462404
H         5.51560854437206    2.49678117342225   -0.80036446805202
H         3.98829470859974    2.91357133082062   -1.73453669165247
H         4.84530681826451    0.26388800739563   -0.57782290471957
H         2.05093142152605   -0.77112276049906    0.13025508367435
H         3.34822613543992   -2.36090905715845   -1.01794178930772
H         4.58079328668324   -1.75539522716309    0.06296256165499
H         5.54885636921288   -2.62599157307513   -4.31984382525306
H         7.29495823106975   -3.00420128750131   -4.42893981715840
H         9.43681427239673   -1.42965421074275   -0.96840166557163
