32
 energy: -49.170877667119 gnorm: 0.303291639332 xtb: 6.4.1 (79825abcba525fcdf90b791dcacef51065a7a4e7)
C         1.26639832872943    0.55952067398137    1.14471040571595
C         2.79647874236176    0.30846116923789    1.08958037616812
C         3.54727485643052    1.68003809600430    1.08417848937194
C         4.44360784375697    2.23056198156066   -0.10023537209484
C         4.79556365846571    0.72204923554842   -0.62610061213974
O         3.42006761376860    0.58331853482530   -1.12398139338348
C         3.08569255659748   -0.47426601005436   -0.18351291810602
C         4.06311475806108   -1.50418646022919   -0.79869753618676
C         5.11427633501485   -0.64858068928757   -1.56896768358611
C         4.53477282633885   -0.80333345397017   -2.96561278915056
N         3.95632495839200   -1.01524409668714   -4.06585462734578
C         6.48629138801759   -1.06377604790143   -1.90564837128188
C         6.99349931408885   -2.32211576968777   -2.17088767245113
N         6.13786705307868   -3.35143028489317   -2.04604488536995
N         8.14736589882548   -2.37392080793375   -2.87117009273266
C         8.59858583702311   -1.15877720254093   -3.07746401566680
S         7.61475169206309    0.11190737765717   -2.48244572112002
H         0.94457429675707    1.15487338298888    2.00845948961042
H         0.64353390876977   -0.34422702821317    1.14409100009808
H         0.92371548533762    1.11495901770902    0.26082480813521
H         3.02344303955000   -0.39529391907096    1.89043803175848
H         4.18584867157025    1.88867161999022    1.94802572303874
H         2.75695489756517    2.45200068891074    1.11458244483373
H         5.36066268374088    2.69668520375817    0.28116699858675
H         3.92498838416539    2.76305364397982   -0.91371004000973
H         5.09092711917862    0.18041776226723    0.29444871277088
H         2.07714237958700   -0.81818705210598   -0.44923637862886
H         3.39944856954950   -2.12235092497246   -1.41151946006599
H         4.56510108838057   -2.27181950063413   -0.19658719990871
H         5.21451385779950   -3.15385630467406   -2.42242264816477
H         6.49708656829774   -4.25299024092006   -2.34676572969559
H         9.52577953473772   -0.93975530784382   -3.59003851451960
