32
 energy: -49.231447329174 gnorm: 0.276373638773 xtb: 6.4.1 (79825abcba525fcdf90b791dcacef51065a7a4e7)
C         2.39482096118472    0.72826212709067    1.96581877359433
C         3.47862670335611    0.65206972972046    0.85821952196885
C         3.70943992219346    2.07270069898830    0.24708928782311
C         4.56625110076117    2.22232595310321   -1.07684894992725
C         4.42049270540071    0.64324281850756   -1.47843180821675
O         2.96276894797739    0.50989811021919   -1.35044173292220
C         3.02256194804641   -0.35807215346341   -0.18518419985628
C         3.89951719647754   -1.52421461448701   -0.70055170537592
C         4.71387558319972   -0.96870641929777   -1.90825574939774
C         3.96571399943872   -1.29733704468716   -3.18991341785387
N         3.24557390570811   -1.31979671576910   -4.22477280027116
C         6.14658967708467   -1.30854356964151   -1.90553905367604
C         6.89555121989694   -1.98262247728450   -2.85195588672317
N         6.41465700736133   -2.49867623588157   -3.99633777602296
N         8.20819714418823   -2.10088803546122   -2.55621741191750
C         8.50207637571316   -1.52474435591954   -1.41410356076415
S         7.19717948345878   -0.69203495264644   -0.67894721888716
H         2.76150242652765    1.35649200708130    2.78737215425279
H         2.27155977288341   -0.28573721396339    2.36748081494871
H         1.44451365403307    1.13208768961349    1.59026854787932
H         4.37086385650214    0.36045475177825    1.41232291520636
H         4.25494519306627    2.70151375168734    0.95740939388972
H         2.71742434492327    2.50417075735599    0.02082624092522
H         5.61135394896652    2.41518297027559   -0.80427893087210
H         4.23929509791467    2.84129040394269   -1.92787029494330
H         4.94043979598359    0.40423422169679   -0.52946120229853
H         2.01242821013894   -0.69135908295766    0.08797097935969
H         3.23120168901830   -2.33588762595513   -1.00497268368209
H         4.51482560123572   -1.93676895384471    0.10875794015977
H         5.55281354769566   -2.10139894580392   -4.36058140404686
H         7.21272932237968   -2.73895070758111   -4.57739783971740
H         9.51101555740202   -1.29644408335521   -1.09738275089087
