32
 energy: -49.227573503617 gnorm: 0.284595590161 xtb: 6.4.1 (79825abcba525fcdf90b791dcacef51065a7a4e7)
C         2.07979335582637    0.84981107271220    1.79487049560290
C         3.34193980180577    0.72328691164659    0.90145331589630
C         3.62885912678927    2.11544638303136    0.24990395920458
C         4.48010476817210    2.27332187745238   -1.07666370097792
C         4.43152577722871    0.66876817069934   -1.39141016786087
O         2.98598128148768    0.40609410614206   -1.36851319296017
C         3.06573551688631   -0.35797093878598   -0.13375954530252
C         4.13382192308266   -1.41285405272304   -0.50919990112682
C         4.83734913915835   -0.92142605911148   -1.81068596863568
C         3.98058939993621   -1.25866588097451   -3.02007519077247
N         3.23346572892251   -1.24740300711316   -4.03581113550671
C         6.26451850347723   -1.25544377155953   -1.95134909247663
C         6.92537780850163   -1.86220701458726   -3.00307810924804
N         6.41471008503433   -2.37703606168572   -4.13504549099486
N         8.23867434935110   -2.07063420139201   -2.76580692617640
C         8.58974277339113   -1.56657708202361   -1.60588969879599
S         7.33066919016831   -0.93770613147618   -0.62820327798092
H         2.20431836491055    1.64886438958977    2.53654788866311
H         1.91980710107073   -0.07719710252012    2.36036198195891
H         1.15141884326350    1.03112984843336    1.23590600558298
H         4.15439168670732    0.48862038103031    1.58921094616926
H         4.13014855723479    2.56948072279522    1.11019358170102
H         2.62300379943487    2.54017120318202    0.07867262160741
H         5.56020245468535    2.44678421727341   -0.99283043446452
H         3.99568447537410    2.85454571281865   -1.87776942642634
H         4.93156852895062    0.43272975994749   -0.43106730615673
H         2.05056574143538   -0.77597783794040   -0.10610710142767
H         3.67756917566459   -2.40223679280929   -0.61449021850457
H         4.91488013898014   -1.52159868621610    0.25363054675808
H         5.40986807243809   -2.45183334081620   -4.26911527522850
H         6.99379022121944   -3.01375675369738   -4.67498529070467
H         9.57062179548859   -1.76678709181211   -1.19578769326208
