32
 energy: -49.226592947893 gnorm: 0.281669047261 xtb: 6.4.1 (79825abcba525fcdf90b791dcacef51065a7a4e7)
C         2.62376646136211    0.92625989245666    2.04076130177444
C         3.56540418176288    0.72720977240022    0.82383331589104
C         3.78426591646737    2.11650907178480    0.14053670895743
C         4.34695033301107    2.21872663128717   -1.33671187789524
C         4.34470184184074    0.59490561270813   -1.53474746093420
O         2.89725573756411    0.42213779662557   -1.34989108180210
C         3.03032536089870   -0.34113462768391   -0.11924881759207
C         3.92771826319949   -1.49354822727852   -0.63029801971925
C         4.68973562749139   -1.02142372407210   -1.90573754762159
C         3.85115098460961   -1.41193621049036   -3.11183291037381
N         3.40363460693881   -1.79563668467556   -4.22652711704148
C         6.11854458952242   -1.37694800036571   -1.92228402309435
C         6.99773439204030   -1.71077684338447   -2.93550373503779
N         6.55627620317325   -2.17618519677517   -4.11689713716017
N         8.30432052406047   -1.78466869931172   -2.60104897970863
C         8.44563969276937   -1.37328047478879   -1.36269555074842
S         7.00782105747459   -1.15127599512980   -0.45715301687303
H         3.05223654277203    1.64762880346724    2.74795174271038
H         2.47887510121652   -0.01114462577938    2.59302902878558
H         1.65288210515865    1.35094766570975    1.75055293361194
H         4.49334728994055    0.27122022909055    1.16901751126591
H         4.37873561330492    2.70665067433057    0.84472075933720
H         2.84126366641601    2.68298795723548    0.03421309063730
H         5.36933070884165    2.61492733149310   -1.37533281483034
H         3.68125416991521    2.82503572860573   -1.97192242717598
H         4.92228987272375    0.51685366797580   -0.59224268435347
H         2.01769685355460   -0.70297542362052    0.10372840584587
H         3.29933514019444   -2.36795543206145   -0.82696402920014
H         4.57393274946009   -1.90439927115345    0.15544740704014
H         5.62659067743792   -1.81975855774342   -4.32164501317048
H         7.19068849256656   -2.21927744296965   -4.90932766436829
H         9.43116706710581   -1.30173499787816   -0.92223170594416
