32
 energy: -49.227798770622 gnorm: 0.279577531574 xtb: 6.4.1 (79825abcba525fcdf90b791dcacef51065a7a4e7)
C         2.57525310714483    1.10619536973467    2.01041872593174
C         3.51845475353399    0.86097607407625    0.80316795543438
C         3.62460565973929    2.15979933547252   -0.06097172084110
C         4.33801043559421    2.19154068313161   -1.47496312390260
C         4.32518647775213    0.55606293121848   -1.50761163223852
O         2.89338364739652    0.23939253531766   -1.41390280511727
C         3.02636228283261   -0.28822673870147   -0.06530824547837
C         3.95969666405074   -1.47131549076536   -0.41706150629242
C         4.67335044388073   -1.08413524642330   -1.74789122505945
C         3.91668264941568   -1.59744470677935   -2.96212245680304
N         3.52503787777453   -2.10513531186044   -4.04789626509836
C         6.11809509476853   -1.35862515797519   -1.82228568956352
C         6.90405512187745   -1.39882789107976   -2.95880721123308
N         6.60071003587636   -1.22653793979739   -4.25706703282995
N         8.21738055064518   -1.61250382864760   -2.72641481041206
C         8.48961132020140   -1.72892411003927   -1.44771730183343
S         7.10838920869993   -1.65287564513423   -0.43625410131763
H         2.97002726085600    1.91692908900307    2.63567246688386
H         2.41372890876642    0.28427783637476    2.71970137842753
H         1.57746198317825    1.35373952081328    1.62269227388221
H         4.43479168991814    0.61883259702241    1.34154529560781
H         4.08691463127824    2.92910991706615    0.56510187999225
H         2.56815293732114    2.44673600789283   -0.21273230809619
H         5.39083152255469    2.45947711515558   -1.32164633474517
H         3.72644402491705    2.73526299962030   -2.21293813344444
H         4.96236733006731    0.43666357490459   -0.60885713255522
H         2.10123061064394   -0.71268294543553    0.34704162786338
H         3.29024769242167   -2.32369450665564   -0.57009390986878
H         4.67264790411034   -1.62622250453504    0.40238462810764
H         5.65951422653496   -1.38389463754438   -4.60730428061255
H         7.41043623656930   -1.32193375069822   -4.86330556271064
H         9.44828014710475   -1.89396197934250   -0.97431690055690
