32
 energy: -49.228845850043 gnorm: 0.281148746603 xtb: 6.4.1 (79825abcba525fcdf90b791dcacef51065a7a4e7)
C         2.36489235344268    0.65818687102327    2.00050929530765
C         3.37768370859309    0.65669570844354    0.82515074626744
C         3.54815695309903    2.09461770801178    0.23500970057921
C         4.33297312852162    2.33224567402605   -1.12032128913401
C         4.43656441676073    0.73280282775386   -1.44753570945547
O         2.98558352463920    0.50631291505288   -1.39776023384037
C         2.96949511466455   -0.36104389620989   -0.23062441216945
C         3.98905177769269   -1.44115904990920   -0.66467266233847
C         4.82895683480685   -0.86621760513593   -1.84548587138330
C         4.05396052875180   -1.09422981934902   -3.13303447529734
N         3.34602868095591   -1.12654744895590   -4.17602451201127
C         6.23881086452926   -1.29027518616444   -1.87104244768108
C         6.87850101040346   -2.06012447276023   -2.82454084507747
N         6.30512483123183   -2.67945245777699   -3.87089319735629
N         8.20228260398516   -2.24857360559045   -2.63329091958168
C         8.58740065049596   -1.69686358984815   -1.50633451255172
S         7.40279449508407   -0.74391800460492   -0.71562681334703
H         2.55809623491445    1.43857053743720    2.74733700619060
H         2.32123409168717   -0.35542729535302    2.41931791240631
H         1.39837592238928    0.91192027199630    1.54371351464885
H         4.29759499874799    0.38888765654617    1.34495750873141
H         4.10747988082619    2.62167963424211    1.01404763164882
H         2.57309340454225    2.61395164354147    0.20339288993272
H         5.32549919144266    2.78300299107014   -0.99607129713114
H         3.66444212089320    2.91484542685577   -1.77446069853855
H         4.98927398055426    0.65822017988636   -0.48995288769289
H         1.91962915341191   -0.65263269164684   -0.09343280894563
H         3.34816900504771   -2.26329007640090   -0.99858983421641
H         4.71831260634665   -1.78724813829167    0.07842128202646
H         5.40194777540727   -2.40622664614404   -4.24890864059411
H         7.03693398435459   -2.91737444412064   -4.53431654014745
H         9.62732415815980   -1.64793987751410   -1.21212892443545
