32
 energy: -49.232606250436 gnorm: 0.281112901517 xtb: 6.4.1 (79825abcba525fcdf90b791dcacef51065a7a4e7)
C         2.28033946315384    0.71705023407408    1.95885360562576
C         3.38133567960403    0.66935156080822    0.86672337552986
C         3.67431019852633    2.08591689661253    0.27304346283971
C         4.45837852157318    2.28827240788203   -1.08843172438232
C         4.44633729170442    0.67139681412862   -1.33659735292842
O         2.98900601817071    0.48442563189430   -1.35525650063454
C         3.01028725658767   -0.37172865666999   -0.17996094400303
C         4.03824931689942   -1.43116489029559   -0.64410670499318
C         4.74375853675913   -0.88917441798770   -1.92427117685915
C         3.89332880129361   -1.14556226867083   -3.15773166012813
N         3.32098640120340   -1.27457418237342   -4.27389483767496
C         6.17878071764104   -1.20920582814339   -2.00463027217371
C         6.89803290586325   -2.00307810271783   -2.87840008337225
N         6.46604570586749   -2.73668261357194   -3.91878083525875
N         8.20707139891823   -2.15498924017602   -2.58204127964199
C         8.53503860605301   -1.45821935824460   -1.51917730225687
S         7.22119253224374   -0.69806010074875   -0.72382700577029
H         2.73625469636093    1.10246988782065    2.87954412219281
H         1.96128920048583   -0.29114389855179    2.25291465456837
H         1.38785283893438    1.28536259781996    1.66273586210158
H         4.27362426821544    0.28652285890424    1.36212247214313
H         4.29486315704456    2.57605197312833    1.02949448066307
H         2.69623797197913    2.58933539136516    0.16626882796622
H         5.45123385627780    2.69765959214069   -0.86400217427727
H         3.90035562537218    2.84019910580363   -1.86189272360754
H         5.00535795493498    0.51007737895067   -0.39347104803906
H         2.01359051525070   -0.81408778611167   -0.04966088439300
H         3.49767830761321   -2.34315270170220   -0.91648887648622
H         4.79434445319264   -1.67487949253777    0.11266998657769
H         5.68330087124945   -2.47113395176701   -4.51044902087329
H         7.22565280134727   -3.19704853174575   -4.41207822781785
H         9.52025938671659   -1.46266578570512   -1.07228626313106
