32
 energy: -49.227904180156 gnorm: 0.289872581472 xtb: 6.4.1 (79825abcba525fcdf90b791dcacef51065a7a4e7)
C         2.44268590219676    1.27464397964462    1.93590124138427
C         3.39615894682644    0.96098762075216    0.75280145248728
C         3.55193456433902    2.22515047972221   -0.15415691434207
C         4.38231425359828    2.08286857957447   -1.49563035915091
C         4.43049845195709    0.44773740891920   -1.48913309933221
O         2.97468569255852    0.25695200716333   -1.43141852698993
C         3.04778417451203   -0.26682634901494   -0.07676523289697
C         3.97895283651193   -1.46489996321315   -0.38022355387197
C         4.76593150734997   -1.19921383680219   -1.69946328273588
C         3.87890729555467   -1.64929649797788   -2.84881262101928
N         3.10178984364201   -1.97400153625489   -3.78726627037386
C         6.20920389229150   -1.45708985356316   -1.83595927386875
C         7.06212162433225   -1.21421709964370   -2.89641897590708
N         6.66884689761555   -0.65830778176838   -4.05550502348989
N         8.32177814819087   -1.67276858801306   -2.73063810932619
C         8.51699377863534   -2.04597479447644   -1.48752163039142
S         7.12499023381944   -2.03416500442836   -0.48812063095630
H         2.68770361066337    2.21119626182656    2.45253862018207
H         2.62431821882550    0.51350975846712    2.70557960168990
H         1.38515275633665    1.35639233019385    1.64930415977097
H         4.35254542856591    0.78121869759189    1.24388702123372
H         3.93461015413780    3.07127430524882    0.42478209222376
H         2.53125017554626    2.54761214506161   -0.42925350851662
H         5.39762999017863    2.49534310482596   -1.44341033051237
H         3.85003393895551    2.46117251630472   -2.38322167952780
H         5.06239156443093    0.39536802188356   -0.58029657080812
H         2.04320906727971   -0.61750635481320    0.19511063194642
H         3.36986762149483   -2.33638715086036   -0.64033145195700
H         4.65936308455848   -1.70259052115777    0.44702049389916
H         5.74497061492686   -0.75082362280060   -4.46923228611200
H         7.37442111379866   -0.75003360212182   -4.78078665034135
H         9.53236358048500   -2.24847465238942   -1.17381901197000
