32
 energy: -49.232835230220 gnorm: 0.277921735301 xtb: 6.4.1 (79825abcba525fcdf90b791dcacef51065a7a4e7)
C         2.20941236885941    1.11486720537740    1.84579779060963
C         3.37903388580216    0.84370759233478    0.86311053566541
C         3.71619903275961    2.18235392512683    0.12874488116562
C         4.49305337452012    2.26357106549940   -1.24937945115114
C         4.49013344708871    0.63677363053468   -1.42124979432674
O         3.03244854334013    0.45261324503567   -1.40226288466150
C         3.01347930419437   -0.25079520148778   -0.12961626236684
C         4.00590798150494   -1.40472298945214   -0.40904137822975
C         4.72025668292313   -1.01129429286126   -1.73766388955522
C         3.97182188060450   -1.51451147708948   -2.96118668928644
N         3.34350972446506   -2.18566070029180   -3.82421779594379
C         6.14301000186419   -1.34381889357402   -1.92032950430076
C         6.91849057286019   -1.61851216202097   -3.03127687952460
N         6.57098456577152   -1.55005994334064   -4.32809394264517
N         8.22363998334885   -1.86582025192130   -2.78650957836281
C         8.48990835877141   -1.91712819911804   -1.50229805500535
S         7.17485767560058   -1.39709888647188   -0.53439986334466
H         2.42759372865810    1.87216020907237    2.60933052519479
H         2.01197812084127    0.14969769013721    2.32972743856616
H         1.26785915086939    1.44197215835713    1.38354577908771
H         4.23462704626581    0.51641426823791    1.45386973158354
H         4.36437785583337    2.78898084487395    0.76859213042571
H         2.71930237799997    2.63700911251815   -0.01596864001854
H         5.52706647711308    2.59532650543579   -1.09290761764098
H         3.96371300988903    2.86596501039481   -2.00514056162985
H         5.00923273138143    0.48602700883918   -0.45386843984105
H         2.03934837160792   -0.71019025536384    0.08506771358403
H         3.49902586152964   -2.37059035850021   -0.50015431073453
H         4.80422635152088   -1.47099756802681    0.34068062490770
H         5.57502491499796   -1.49419794060089   -4.52359489813997
H         7.19085217276790   -1.97970910880199   -5.00886393067036
H         9.46336195683607   -2.11089738302674   -1.07191107486719
