32
 energy: -49.227352841011 gnorm: 0.280685718461 xtb: 6.4.1 (79825abcba525fcdf90b791dcacef51065a7a4e7)
C         2.14093601137588    0.72863696216687    1.93037798121573
C         3.34391582558823    0.66827697415866    0.95241453297074
C         3.57737252100121    2.10023726862055    0.36937513638865
C         4.39675314506784    2.29310116546938   -0.97254307048845
C         4.46026302128027    0.70530758740577   -1.36099627383813
O         3.00616305016886    0.49792662225232   -1.31967754656655
C         3.05250824392363   -0.35104042334790   -0.13989799993677
C         3.97178035986050   -1.45783116700148   -0.70954300475569
C         4.80984060037222   -0.86741343935359   -1.88401306463946
C         4.25329115668396   -0.90982129903672   -3.29781804216919
N         3.66348893787020   -0.88827066949686   -4.41213803460075
C         6.20537661795559   -1.33520493017275   -1.84139043486750
C         6.77931419186773   -2.25134242358310   -2.70296942030654
N         6.17711104015479   -3.07709915649054   -3.57627224147079
N         8.12273416702961   -2.35650338645101   -2.60995728641792
C         8.64633919958958   -1.54237100206269   -1.72352803291385
S         7.47134527723121   -0.55815243947529   -0.95716075885718
H         2.37678151164114    1.52630964642269    2.64604076831545
H         1.94365144954175   -0.28991143446261    2.28864930936466
H         1.23778373089652    1.03159183896567    1.38290073455738
H         4.22221772309183    0.37813671716611    1.52909590921872
H         3.89119639526832    2.72283559357260    1.21283373531193
H         2.55154703163704    2.47832944050767    0.20755839759863
H         5.39798426133719    2.69849486181233   -0.78039623635744
H         3.81760329703626    2.91373172232427   -1.67515086295546
H         4.99572511519132    0.50495796292193   -0.41170408125500
H         2.03672881882059   -0.74852373583906   -0.01237046441653
H         3.39394560784499   -2.35314473137449   -0.95984570247353
H         4.64103591180427   -1.85199768753743    0.06538755864086
H         5.21295278357391   -2.82210284243326   -3.77287476794472
H         6.73974223924663   -3.21154524817281   -4.41152814243926
H         9.71803724339443   -1.54382683790746   -1.57570198291741
