32
 energy: -49.231695187333 gnorm: 0.277818082074 xtb: 6.4.1 (79825abcba525fcdf90b791dcacef51065a7a4e7)
C         2.39388848566351    1.07721335866347    1.89841752725915
C         3.47251717400321    0.90524033012625    0.79650931777827
C         3.57019900286174    2.24447074212113   -0.00465697024278
C         4.39098642653799    2.26808039187295   -1.35930679834322
C         4.44228350429906    0.63870191978271   -1.49536651047389
O         2.98616049124186    0.46088746175801   -1.41046292871809
C         3.04026938910424   -0.22367235800089   -0.12858041399417
C         4.00659863373974   -1.39656018625967   -0.42027263630857
C         4.75697333276497   -1.00897067847594   -1.73062762272228
C         3.97263561463204   -1.66267073997861   -2.85662975943219
N         3.57455532205776   -2.20352050517955   -3.92389437188736
C         6.17183606793205   -1.40258072281710   -1.83740277609226
C         6.90474178503864   -1.48917341692576   -3.00632600496037
N         6.54266833005593   -1.06157952903984   -4.22831083243909
N         8.17081160498533   -1.90443795329558   -2.78471848118937
C         8.43715713075450   -2.03648498921255   -1.50629983472173
S         7.13586014664415   -1.71832493980374   -0.43764832905409
H         2.66451365895285    1.89628018752065    2.57662810076599
H         2.35279501202354    0.14029505056239    2.46869446898929
H         1.39025317994897    1.27493115206925    1.49739273676871
H         4.39862544810600    0.70807819555483    1.33651631925751
H         3.94474812711659    3.01713843656806    0.67374858370019
H         2.52803219377647    2.54216451199819   -0.22081210886482
H         5.41188553688728    2.53348850603520   -1.05755897562320
H         3.97504392758624    2.84606813046578   -2.20024469997278
H         4.94206800106784    0.61691476698290   -0.50655102218603
H         2.04573185062183   -0.55047189112302    0.20332506807335
H         3.49433654922695   -2.35190560610822   -0.57204060641936
H         4.77264453974670   -1.55077481636002    0.34990860335802
H         5.56057102180202   -0.86737607861224   -4.40451160309396
H         7.15834817313396   -1.36328541110179   -4.97810675629205
H         9.40268131087201   -2.44452422307474   -1.23860896563308
