32
 energy: -49.232722707202 gnorm: 0.284888502280 xtb: 6.4.1 (79825abcba525fcdf90b791dcacef51065a7a4e7)
C         2.04597793622808    1.28041775971082    1.70048157805263
C         3.28350346888396    0.96940226994987    0.81786263922563
C         3.53533193821923    2.22442635354066   -0.08015975874502
C         4.44232451809118    2.20949997543670   -1.37880029068985
C         4.49824477412665    0.57756272074130   -1.47714444785315
O         3.05447320781316    0.32084289307927   -1.38365956150298
C         3.06733307774435   -0.26149265020310   -0.05118343061004
C         4.18779853977872   -1.32260725547080   -0.16579302831548
C         4.85604362553136   -1.07637027550035   -1.55256404306722
C         4.01897126713155   -1.57634199855826   -2.71863797183534
N         3.27340794518287   -2.03972412561000   -3.62387412297872
C         6.23110232462693   -1.52268875388760   -1.83217045339404
C         6.92740707369489   -1.38204610356441   -3.01809200860432
N         6.53146888735975   -0.89900697635522   -4.20850655287149
N         8.21807528241254   -1.76106040674585   -2.89557242959642
C         8.58151382544826   -2.05449979140124   -1.66897700169480
S         7.27602963119623   -2.04733486729705   -0.55889800520645
H         2.12766387612004    2.14665842921911    2.36908650296581
H         1.85287274337887    0.40598706266574    2.33514819934813
H         1.15691672879909    1.40342495849031    1.06673365219034
H         4.08377635280894    0.77011431916057    1.53060707292027
H         3.98640766278362    2.98811849507236    0.56080943887158
H         2.55817106924359    2.62925310361532   -0.40067219455501
H         5.43050395418069    2.66571346748601   -1.24060167836354
H         3.96298218130279    2.67829558288735   -2.25328079337617
H         4.94673369654770    0.62036312660824   -0.46470131035054
H         2.10300448181906   -0.77113727316840    0.07686662393301
H         3.80155882205496   -2.33497112041893   -0.01065080912676
H         4.98208054353030   -1.11139553760102    0.56104487250262
H         5.53710206261948   -0.96316087331873   -4.40949339351434
H         7.11402260264390   -1.24727507201857   -4.96456378661111
H         9.58314271934425   -2.33571472436466   -1.37224635287438
