32
 energy: -49.228582309653 gnorm: 0.286224519154 xtb: 6.4.1 (79825abcba525fcdf90b791dcacef51065a7a4e7)
C         2.31463812508381    0.80269504111821    1.96957884023438
C         3.40933045456013    0.65480206695063    0.88008692103642
C         3.57962864161203    2.08918474119923    0.28134480000621
C         4.43104819120407    2.25137264450967   -1.04459087092691
C         4.45832998124018    0.66092659821388   -1.42636952595241
O         3.00277405096563    0.46188392496842   -1.39704754861700
C         3.01402975500999   -0.35138670271581   -0.19154479240333
C         3.97456742822640   -1.49317195468776   -0.60171089201878
C         4.77377450880550   -0.95437762934490   -1.82698094569268
C         4.06070487703698   -1.10578722580151   -3.16077143989425
N         3.45382880695106   -1.29007795510988   -4.25062395561609
C         6.20269013472508   -1.28978068428803   -1.94475738001536
C         6.87925938645957   -1.92917056984074   -2.96674819071850
N         6.42053176021949   -2.69810574811313   -3.96948858198499
N         8.17185884519619   -2.11549925364704   -2.62184881191945
C         8.55826425644289   -1.45465041479665   -1.55568735000215
S         7.25802530717214   -0.75916935929919   -0.68258914607342
H         2.50876392008275    1.58052242201403    2.71883031818862
H         2.37803492539781   -0.10250197616047    2.58708963794836
H         1.29974061803071    0.87002393231279    1.55407083133328
H         4.30101185955646    0.32543234727003    1.41354438264796
H         4.05946073163187    2.72921682770165    1.02810888733203
H         2.55588647013915    2.46262970269242    0.09709738480791
H         5.45030845210263    2.62671757392497   -0.88982358641360
H         3.85062926937025    2.77128215667172   -1.82373304491703
H         5.05657188550795    0.56866641460958   -0.49814004046024
H         1.98507136697431   -0.69166923096021   -0.01401582658783
H         3.32874485358767   -2.32761250937716   -0.89283456009235
H         4.64453302528207   -1.79175983162450    0.21424192232758
H         5.49969675645445   -2.42456489556439   -4.30192671820449
H         7.07977510549494   -2.89287563132397   -4.71764962070483
H         9.55626251903957   -1.57927758047560   -1.15711628200541
