32
 energy: -49.220483735799 gnorm: 0.275499598384 xtb: 6.4.1 (79825abcba525fcdf90b791dcacef51065a7a4e7)
C         2.11315297584969    0.89392014443027    1.79267163724516
C         3.24853956618076    0.72480281757430    0.74887429469779
C         3.49646287388229    2.14662577729216    0.14729241125325
C         4.40883821758216    2.28531248101131   -1.14021013199761
C         4.49496516483523    0.68126124683660   -1.44943438771667
O         3.06143133469131    0.35868747205030   -1.45634434167381
C         3.02473946087866   -0.42020705342412   -0.22884699861002
C         4.17521484437992   -1.42431613354354   -0.47927418111325
C         4.89366967375741   -0.93298487650407   -1.77261647115155
C         3.91425968438727   -1.36998058053688   -2.84973349363062
N         3.06617950542651   -1.70337056976844   -3.72131325020733
C         6.29652096410169   -1.37342544218094   -1.85127225225644
C         6.97796525239723   -1.68565171867108   -3.01281392259697
N         6.34132218451689   -1.82665031423122   -4.18839278061327
N         8.29198722673496   -1.95096191751064   -2.84715140077637
C         8.68107153415851   -1.68866544815278   -1.62136815771319
S         7.42732702096211   -1.21532137868731   -0.55333923243206
H         2.42639755581082    1.59167996276145    2.57949252267631
H         1.79503623659823    0.00209283759496    2.34779880695357
H         1.21159291929584    1.35677697010384    1.36823075955116
H         4.18189541975035    0.57989367760946    1.29293789168077
H         3.88632328067641    2.78007581546663    0.94996695359929
H         2.53279994044966    2.60440514053562   -0.14123503720116
H         5.40885547445803    2.62261645614860   -0.84034395816691
H         3.99175086206406    2.98038315070880   -1.88664797013599
H         4.96407706623993    0.64182986400537   -0.44624224057411
H         2.05483647830681   -0.83887648135974    0.07126667218792
H         3.69344847428388   -2.39159974123055   -0.65361414230460
H         4.85992167187674   -1.54723922916290    0.36916797865031
H         5.37027174211369   -2.12644232719803   -4.20990101721829
H         6.91145763586470   -2.21789100862010   -4.93281089260471
H         9.68059954279413   -1.89258250137174   -1.26115578280484
