32
 energy: -49.229674610007 gnorm: 0.286474531979 xtb: 6.4.1 (79825abcba525fcdf90b791dcacef51065a7a4e7)
C         2.39943570441550    0.95379800975027    2.00009342838114
C         3.48942914999696    0.74972730693164    0.91497329395539
C         3.70949696723430    2.14079963843692    0.23568309142405
C         4.48796699240993    2.24565884343690   -1.13993114821996
C         4.39537456069794    0.64135190999487   -1.44594382857963
O         2.94441428818996    0.43826522583728   -1.33373459258166
C         3.01652826267362   -0.29869252271818   -0.08214937691485
C         3.86508195884389   -1.47899456313446   -0.61260778792496
C         4.70099198510441   -0.97981760769717   -1.83014414399376
C         4.01417835899722   -1.23179763213948   -3.16250421740299
N         3.51092939572816   -1.64080910842847   -4.24393393832846
C         6.12503219054455   -1.32298599379305   -1.98018184084179
C         6.91996228920660   -1.89896021875335   -2.95351139079807
N         6.55022377017973   -2.35168177314913   -4.16409688997791
N         8.23494112887565   -2.03471234660797   -2.67622215480648
C         8.42397243763703   -1.66049384883709   -1.43245438144845
S         7.09993788409214   -0.96091025162893   -0.59930914256768
H         2.72976784247592    1.72712249178102    2.70502460245441
H         2.32542116396230    0.00680832982846    2.55005049347415
H         1.39160334629502    1.16916549295252    1.61918947755440
H         4.38978829058520    0.35050389772324    1.38201835686980
H         4.26502465321921    2.63870524361556    1.03631753179769
H         2.74269566068629    2.64553540309233    0.05681631319744
H         5.50375761910392    2.62252619259813   -0.96710577828896
H         4.01605428576218    2.89365375310595   -1.89601020606675
H         5.00559004025856    0.53807480148286   -0.52671251808718
H         1.99649785409252   -0.62091667121657    0.16639369890492
H         3.19588541129183   -2.28922177117106   -0.91893878015979
H         4.59027538483248   -1.85587815991320    0.11940373518210
H         5.69302553103434   -2.02161346366857   -4.59946214054710
H         7.27456708857255   -2.59412264178601   -4.83404555565415
H         9.38698373365816   -1.57901010456727   -0.94628465570161
