32
 energy: -49.233340933059 gnorm: 0.273719957309 xtb: 6.4.1 (79825abcba525fcdf90b791dcacef51065a7a4e7)
C         2.65845697620020    1.08678075357418    2.02157350363705
C         3.54172653331243    0.91594310614120    0.75750639352715
C         3.57455242939432    2.26259060662255   -0.03647737643489
C         4.26166682276415    2.28130903064702   -1.46365956540264
C         4.30309151121965    0.64835364980154   -1.55174221565824
O         2.86734579232180    0.37202695930919   -1.40545956466445
C         3.06187959117643   -0.24449994400752   -0.10283763928917
C         3.97388281837753   -1.42924531131040   -0.50179997793550
C         4.70415050307060   -0.97804165813899   -1.80312329757931
C         4.11861379459480   -1.62336231698555   -3.04855424789114
N         3.48083288283007   -2.16344205254327   -3.99279443394239
C         6.13333626363471   -1.33103368476871   -1.83460438834407
C         6.97631783308525   -1.43412526231321   -2.92537696354837
N         6.56074909157645   -1.24069472454468   -4.18912847933532
N         8.24102503932606   -1.81035483510031   -2.63649237024959
C         8.44464375743997   -1.90043916246495   -1.34298750967867
S         7.02626481349632   -1.70280635658700   -0.40184026193206
H         2.97322267063136    1.97010362563587    2.59143427416569
H         2.77381020562784    0.14110192828403    2.56664741764943
H         1.60162660020785    1.23548785227277    1.76043601036166
H         4.53538900900512    0.66227971437682    1.12689341643707
H         4.08642565967786    2.99438013791975    0.59598320461954
H         2.54198771091029    2.62640002579740   -0.18783487289645
H         5.24681850477514    2.76328166108067   -1.43354731647727
H         3.61939542031893    2.75483177596129   -2.22360574715158
H         4.89223186514369    0.56323374573531   -0.61703181197438
H         2.15489971472734   -0.65563903826925    0.36021338238976
H         3.34022596697372   -2.28841268597888   -0.74354622984963
H         4.75424326240753   -1.74680309925014    0.20103873366839
H         5.63262872710098   -1.56598241130171   -4.44614467759377
H         7.28218127338051   -1.45668008427104   -4.87116071538894
H         9.40276596520336   -2.18494317141200   -0.92892149758262
