32
 energy: -49.225137141423 gnorm: 0.281084306160 xtb: 6.4.1 (79825abcba525fcdf90b791dcacef51065a7a4e7)
C         2.53998745136030    0.77441910702858    2.04664916227438
C         3.55085459016485    0.60912391417058    0.88129883037437
C         3.96089453643047    2.04642526299045    0.42197396888765
C         4.43259882810883    2.27709169358216   -1.07255392466353
C         4.33342403033839    0.69307163740757   -1.46886524008564
O         2.87956194339789    0.49435285673956   -1.39194514279942
C         3.00372992073988   -0.31975482077480   -0.19336944503555
C         3.85485286059551   -1.45594961790856   -0.80915637020735
C         4.64528274383811   -0.87731420141176   -2.02188867856532
C         4.03483430373971   -1.27425295576175   -3.35612349460264
N         3.45323678455786   -1.53721939144236   -4.44361285464749
C         6.07015179094371   -1.24760794505344   -1.99365578719624
C         6.89408031052040   -1.96436040325696   -2.84126318261036
N         6.51634407989493   -2.70663902429965   -3.89649700602978
N         8.21474391473953   -1.92363681419690   -2.56076978727484
C         8.42165197469186   -1.29202579210856   -1.42896275229156
S         7.00706756574857   -0.74709209909732   -0.62982952385705
H         2.92109073902193    1.47569266630560    2.79967885307808
H         2.23358950439068   -0.15184490621917    2.54951659497274
H         1.61097153215945    1.22866094964017    1.67544732334140
H         4.40776841983765    0.11050579533598    1.33432825950289
H         4.70422032370861    2.34510728609041    1.16748877777092
H         3.17522442960895    2.78380085771126    0.66785198156822
H         5.49667033072183    2.54394303681902   -1.08899788441087
H         3.72910260051126    2.92898198540065   -1.61512802088493
H         4.90908336002520    0.43245882439101   -0.55852871227599
H         1.99267950483883   -0.71928938846163   -0.03776326235432
H         3.13265078974085   -2.21933290572842   -1.11542578185334
H         4.62016685722167   -1.96791982374585   -0.21252531361079
H         5.62383559425914   -2.61493952728947   -4.37430095730705
H         7.35224256330046   -3.01787365867880   -4.38300370328218
H         9.40768791168822   -1.30182282776333   -0.98395881074027
