32
 energy: -49.230467720678 gnorm: 0.280465164057 xtb: 6.4.1 (79825abcba525fcdf90b791dcacef51065a7a4e7)
C         2.25861645322475    0.95700978114012    1.91075163887359
C         3.38711400248758    0.80985143322471    0.85621194260984
C         3.62327677031759    2.18241295872766    0.14540306545565
C         4.43125979108389    2.17608666442713   -1.21711261641708
C         4.44968186221995    0.55570779109449   -1.44083296082966
O         3.00258766774510    0.30980437457895   -1.37322577867284
C         3.07808746558107   -0.35023407664176   -0.07961775287191
C         4.06485942701153   -1.47073831235223   -0.48618111009219
C         4.77863037920082   -1.06412794175653   -1.81114036505602
C         3.90143572522634   -1.34868551868986   -3.01942292539099
N         3.28132861348799   -1.71468822049168   -4.05457959162184
C         6.21738459455391   -1.36847507054046   -1.88547390138238
C         6.93893678005675   -1.72302784649573   -3.01005620328104
N         6.55922503491512   -1.75128057403690   -4.29932010150419
N         8.24043660435343   -1.94064252862489   -2.72156119716237
C         8.51274888348830   -1.66451484164352   -1.46763531619259
S         7.19939876065995   -1.19095744861948   -0.47391978922355
H         2.59201482658627    1.77107938011585    2.56665883437991
H         2.07310596138941    0.11035606616579    2.58416363998216
H         1.35739718894834    1.25367945298700    1.35668668013166
H         4.32817426920491    0.52784869438245    1.32847991032845
H         4.14864530556245    2.88180001334655    0.80296078755327
H         2.60552354644921    2.53661572543244   -0.09990298416401
H         5.42514996997963    2.63595754904398   -1.15055973077764
H         3.88858292248547    2.73410023038355   -1.99709801694094
H         4.96688100076247    0.41574213409767   -0.47081751868338
H         2.09543212839310   -0.73402430618926    0.22559962061115
H         3.45435525204802   -2.35077844685457   -0.71189075796733
H         4.82662319832510   -1.73084368287327    0.25937155217553
H         5.57007006444323   -1.85151064883557   -4.51098773859436
H         7.11034402775668   -2.19227827175588   -5.03012165868426
H         9.50388234917487   -1.68615815041025   -1.03453327395478
