32
 energy: -49.231652541686 gnorm: 0.279746661068 xtb: 6.4.1 (79825abcba525fcdf90b791dcacef51065a7a4e7)
C         2.48277609880966    0.74075820729738    1.97152215751798
C         3.52007511578603    0.61214769074429    0.82492442679106
C         3.78086524476459    2.06016143500866    0.29559280790882
C         4.47745001516224    2.18937489246166   -1.12123432001806
C         4.41370181841184    0.59224995734692   -1.46929462906397
O         2.94918093829823    0.47374389893593   -1.45330288975165
C         2.97152841992409   -0.32729409750124   -0.23979087087427
C         3.85504958007402   -1.51529842159494   -0.68987808868929
C         4.68220559296866   -1.01976183489388   -1.91485744417026
C         3.96896033460117   -1.27121097110967   -3.23335839889481
N         3.18041690150278   -1.40439561020210   -4.20829493228336
C         6.13624462441198   -1.25086673817709   -1.89189263441244
C         6.91646439850802   -1.89741343161905   -2.83224633441031
N         6.51790974700118   -2.55652520593582   -3.93402058509702
N         8.24270526857341   -1.90823056325675   -2.57640368597702
C         8.53569628923335   -1.31913492527184   -1.44068665086493
S         7.15497972558014   -0.79386188349218   -0.57216739450303
H         2.91873479983342    1.39012667886774    2.74115754899413
H         2.20730915762169   -0.21815644932521    2.42903830508421
H         1.60123421789829    1.16393524867314    1.47052102032312
H         4.43808875859878    0.26120770244489    1.29635743450440
H         4.37606603177696    2.66026992051834    0.99067721827732
H         2.80574115865369    2.56795496811857    0.18274322681459
H         5.49675626286621    2.59400136805272   -1.15317796605312
H         3.86304301927060    2.78315481198131   -1.81706763557942
H         4.92753289567219    0.44568918542945   -0.49846361530909
H         1.95120323534437   -0.64753890542493    0.01009686366769
H         3.23863124135710   -2.35502125766476   -1.02606973211292
H         4.61054520876972   -1.82452443630033    0.04319302090294
H         5.56241689674294   -2.35893642304656   -4.21909759700940
H         7.17309564014477   -2.61672172694196   -4.70822331143990
H         9.53834103708788   -1.45019794726548   -1.05608640028741
