32
 energy: -49.224149523162 gnorm: 0.285325360723 xtb: 6.4.1 (79825abcba525fcdf90b791dcacef51065a7a4e7)
C         2.50662481029334    1.26865880207924    1.89416969084623
C         3.52188587624649    0.90371874376878    0.77914503169838
C         3.70928840805308    2.09045012584164   -0.22160277620533
C         4.54093292137562    1.97661421025994   -1.56500679682293
C         4.40995043632907    0.34665686952520   -1.51917525326503
O         2.95264291993776    0.22389215143354   -1.37668154990644
C         3.01043208036657   -0.28861574027655   -0.01698718224816
C         3.88549358068241   -1.52985697104638   -0.31385412789027
C         4.68632929643162   -1.32050418035718   -1.63489596939050
C         3.99535802620533   -1.80465419514314   -2.89923283774306
N         3.37392101914039   -2.11878086937144   -3.95050854974477
C         6.13362463980538   -1.53623091977462   -1.79910478718798
C         6.86732840760998   -1.20383438214120   -2.92259129256557
N         6.40799747456607   -0.70808858066713   -4.08467211252562
N         8.19961553420347   -1.22891757508754   -2.70152758193122
C         8.50366175620691   -1.58629074862321   -1.47573359346114
S         7.16332458523796   -1.98282704203767   -0.48433511986636
H         2.67363006647109    2.24724805716893    2.36166338067243
H         2.68873514351933    0.54862096331606    2.70231677938671
H         1.44772658722280    1.20268574432646    1.60854906257759
H         4.45719316137223    0.81011770046651    1.33104731426811
H         4.05791040961360    2.88310023973837    0.44750484336504
H         2.70523443708313    2.45050533618570   -0.51089873689640
H         5.59095172038982    2.29453573426592   -1.55429999823546
H         3.83846464886462    2.46706355830672   -2.25800918891782
H         4.94835848402524    0.29001265928065   -0.55226083005660
H         2.01422754273130   -0.59091105959418    0.33266715480948
H         3.21878375241445   -2.38495134647700   -0.46366214015097
H         4.66166140591989   -1.82370806014053    0.40378273280631
H         5.44201306259468   -0.75161396738371   -4.39813098998454
H         7.14418011237308   -0.60255367639326   -4.77690006934174
H         9.50734396422092   -1.63082912658422   -1.07444851203059
