32
 energy: -49.227424072959 gnorm: 0.283917647733 xtb: 6.4.1 (79825abcba525fcdf90b791dcacef51065a7a4e7)
C         2.26777857693940    1.35987471237194    1.85573187572785
C         3.30183088037605    1.08879108793916    0.73124720638915
C         3.31446778298811    2.26336154896808   -0.30082439737341
C         4.15950556455764    2.17306240068207   -1.63764255207115
C         4.39788519491459    0.56376932438596   -1.46626930056136
O         2.98350666353915    0.18696949752758   -1.33713336563206
C         3.04658491483838   -0.24785938018313    0.04912695714184
C         4.16897112627040   -1.29784378446646   -0.13066279126946
C         4.88891817668484   -1.05715982410415   -1.49230351775946
C         4.19823763350308   -1.79729162031713   -2.62612695094245
N         3.61812537772165   -2.11566192854026   -3.69950958198577
C         6.29772974491800   -1.41849543365445   -1.72220110591121
C         7.00281865661996   -1.10609379043891   -2.86949594308182
N         6.62525329063627   -0.30245842208050   -3.87884980952225
N         8.24045976083484   -1.64677418604503   -2.88940889973343
C         8.44971125795115   -2.43053398676447   -1.85758285851731
S         7.21271187684836   -2.44202176144803   -0.67170079854370
H         2.41648133121542    2.36094106309707    2.27979754094213
H         2.50168179056177    0.56182179535479    2.57205666806028
H         1.23093245645831    1.25233880311133    1.50848097879407
H         4.23324009757223    1.00295207885120    1.29094849990411
H         3.62558220296368    3.18148383844069    0.20691154523237
H         2.23244979614164    2.30472312390847   -0.52214447982608
H         5.15868015805889    2.61823359436040   -1.55278415079341
H         3.73992768066190    2.44047175993480   -2.62085218433507
H         4.93597306716200    0.71792887963174   -0.50986375604822
H         2.05023507952323   -0.60768796562832    0.33873788662223
H         3.66572455290909   -2.26367842107161   -0.02094877442524
H         4.87715921345056   -1.24698069644088    0.70580011792023
H         5.62184322887852   -0.18692213861861   -3.99328944728385
H         7.25292712839598   -0.29190684010998   -4.67772167259766
H         9.40547514069032   -2.90831980849251   -1.68838632138645
