32
 energy: -49.224463464507 gnorm: 0.288430675764 xtb: 6.4.1 (79825abcba525fcdf90b791dcacef51065a7a4e7)
C         2.08000648101326    0.37820362686263    1.86410120396285
C         3.30766879542772    0.48546785910703    0.92146877423106
C         3.46704089770173    1.98691803071425    0.51502668532266
C         4.49087694806040    2.30029314737855   -0.65239840698194
C         4.54564306389037    0.76608848281338   -1.21740687457447
O         3.09215779053476    0.61941410380487   -1.37548286699817
C         2.93193202433117   -0.34419099562020   -0.29818735656771
C         3.90601166526599   -1.43475351547571   -0.80453176030012
C         4.83820774373115   -0.77201172323809   -1.86382480942281
C         4.26233845026741   -0.71939428741060   -3.26952613245336
N         3.85331079511960   -0.54679561131085   -4.44975755795671
C         6.24727241634095   -1.17279171971926   -2.01241312970617
C         6.76068746726063   -2.35034910767050   -2.52309324125543
N         5.98605549938174   -3.36447714576123   -2.94578730836717
N         8.09464191211401   -2.50969665901285   -2.38287481432800
C         8.66803459521749   -1.41564989440139   -1.93901323743623
S         7.56711361408422   -0.17151238711472   -1.51864369574282
H         2.13047216050060    1.07219854791424    2.71257176978192
H         1.98069403293075   -0.62475177050170    2.29877106509626
H         1.14682326888830    0.64069136000970    1.34692974514868
H         4.16351030529415    0.02156930373116    1.41186702479177
H         3.77431785246791    2.50058887271456    1.43113783981935
H         2.53992744126866    2.43675324575354    0.11557055359594
H         5.50535877731191    2.60513701770753   -0.36669744582127
H         4.05959232519382    2.92177643488174   -1.45365158086893
H         5.01375797926925    0.28557037732510   -0.33537168610253
H         1.91652886101910   -0.75565209110608   -0.22255482014216
H         3.36013195518479   -2.29571077905042   -1.20315282561597
H         4.57084068662144   -1.70144390020299    0.02653155354436
H         5.08664553660288   -3.17593863962410   -3.38028905088749
H         6.57467771505979   -4.11423851999553   -3.29744595994481
H         9.74094538654020   -1.40321478929683   -1.80081352675004
