32
 energy: -49.226386339748 gnorm: 0.278911051129 xtb: 6.4.1 (79825abcba525fcdf90b791dcacef51065a7a4e7)
C         2.28765934077673    0.86843340516472    1.89277054588505
C         3.41720393317407    0.86356399483627    0.82913452990510
C         3.51208450130810    2.24180543754478    0.09674429163586
C         4.32190688007891    2.32890468090600   -1.26190467213475
C         4.42358509039148    0.70629655092424   -1.44307381242739
O         2.97709858131929    0.45801736458441   -1.37127511845192
C         3.08831382946422   -0.27831559850922   -0.12218839670096
C         4.04903673216146   -1.41654933675129   -0.54168557618015
C         4.85447153221814   -0.89852777110466   -1.77182640518049
C         4.05113326061759   -1.28579550248269   -3.00270478567905
N         3.27404603174860   -1.62642040765780   -3.93552323775302
C         6.28713408883652   -1.23549599708690   -1.81761708176022
C         6.91531675688926   -1.75949653785435   -2.93199609503945
N         6.38750068800341   -1.96721111328281   -4.15078463272809
N         8.22173455658512   -2.06956909932671   -2.78497615358831
C         8.55591037441704   -1.90877748194483   -1.52592763363097
S         7.33981830261986   -1.35735656518408   -0.45183697417587
H         2.47673256922457    1.66314219335132    2.62541458829405
H         2.20586317852479   -0.07798692426385    2.44260536436127
H         1.31022387071457    1.04516029604709    1.42310625807116
H         4.39211587721893    0.67894908598312    1.28037841261734
H         3.92901341568745    3.05046722839446    0.70483383874882
H         2.48512303763001    2.57836060673890   -0.13463646318894
H         5.33699877029568    2.73961023298379   -1.19380465221606
H         3.84065498735057    2.86618059419619   -2.09496274764347
H         4.94355150328874    0.63399060260703   -0.46715267210536
H         2.17811477552404   -0.79575511092876    0.20926014341187
H         3.40113792020531   -2.22802926318269   -0.88789114128180
H         4.70055500355682   -1.85724149995107    0.22323401629356
H         5.43695358151095   -1.84035307039215   -4.48789596110104
H         7.02525805477669   -2.10829082371529   -4.92901602049488
H         9.58702080574660   -1.99284551966454   -1.20948616309759
