32
 energy: -49.230865014936 gnorm: 0.278255811549 xtb: 6.4.1 (79825abcba525fcdf90b791dcacef51065a7a4e7)
C         2.12772674880738    1.01100561540699    1.73148443373930
C         3.37103357165532    0.85031766728003    0.81738170454438
C         3.65966155014079    2.21962125885003    0.11977951067979
C         4.43661373706636    2.28526290382999   -1.25911934115184
C         4.51011854417003    0.65942009317891   -1.42419524522295
O         3.06064069151887    0.42480686046000   -1.36859472422648
C         3.06608981403879   -0.31317764729262   -0.11554968290106
C         4.09331508591832   -1.42306711086748   -0.44341557001925
C         4.79786153947201   -0.97567763702129   -1.76014445930470
C         3.98236145585126   -1.42101813864587   -2.96306661110450
N         3.19427959641552   -1.87022906047675   -3.83895283502638
C         6.21587335816892   -1.35881505454047   -1.86317152634418
C         6.91605488112744   -1.60689792582549   -3.02903229666350
N         6.54534074310047   -1.43494022459110   -4.30972828758781
N         8.20405953737031   -1.91857812957501   -2.76752363634142
C         8.54116618709891   -1.97353575774744   -1.50021571854689
S         7.22852218497727   -1.56454028857692   -0.47732563318094
H         2.33817132643785    1.88719674263701    2.35764753159540
H         2.05203347102521    0.17509538897327    2.43876443544587
H         1.16410790688281    1.19517246849104    1.23679429549397
H         4.17746139212455    0.59613251688631    1.50529237051494
H         4.25992884075738    2.78227593986234    0.84133020107472
H         2.71789413421073    2.79302458860539    0.04402306868628
H         5.44183417622363    2.71040771825755   -1.14726245669355
H         3.85517472322391    2.73374454128236   -2.08073205035901
H         4.95046582999410    0.61405348510263   -0.40829592526327
H         2.05256428870728   -0.66035950415884    0.12589361720734
H         3.63545898679528   -2.40923442451076   -0.56979853374436
H         4.87235394256429   -1.59221983149695    0.31042356570448
H         5.53383518458525   -1.46968812243181   -4.40420530996094
H         7.11096686068227   -1.97650007711238   -4.95707831686453
H         9.57134822551679   -1.95034846849440   -1.17070293271323
