32
 energy: -49.230239097728 gnorm: 0.280720076572 xtb: 6.4.1 (79825abcba525fcdf90b791dcacef51065a7a4e7)
C         2.29946005628998    0.79521003127538    1.97226283860675
C         3.44986310109434    0.66741869110894    0.93908401679129
C         3.80772352819090    2.08085521154054    0.37421202112341
C         4.48333935010910    2.28586998887268   -1.04382809428326
C         4.40695402847691    0.68943615686673   -1.39251440302482
O         2.94549876268613    0.53845570504887   -1.37073752746292
C         2.99613420578478   -0.27530161952563   -0.16657484411024
C         3.91877320306856   -1.41526651889255   -0.66029512773368
C         4.71719112519202   -0.89805287156011   -1.89534041152935
C         4.08158498999557   -1.25339925597502   -3.22955329142614
N         3.59741438551069   -1.52285257220577   -4.36225531155683
C         6.13807164346523   -1.28132925593896   -1.94396257758039
C         6.83078588298689   -1.98455631180130   -2.91176900237902
N         6.39655803964288   -2.61517793916003   -4.01673197706857
N         8.15682972478836   -2.07374119385719   -2.67064434672373
C         8.46974534908442   -1.54386394852278   -1.51131501052070
S         7.18787998703492   -0.78667815143863   -0.66272408464062
H         2.75102241373059    1.33039730380285    2.81709658390797
H         2.10112125916316   -0.21428591775299    2.35475470789865
H         1.39637676354748    1.32799058234529    1.64396040868268
H         4.21039264098317    0.15827803277960    1.53113774068013
H         4.39229592349672    2.59716642416316    1.14182804109445
H         2.83995308517065    2.59804882516602    0.24235066011873
H         5.52886908494422    2.61613671762167   -1.08281097593814
H         3.90913446679403    2.93686223393505   -1.72261553861598
H         4.86390091826183    0.35789984140963   -0.43894295453121
H         1.94634288849119   -0.55855182570257   -0.01239440622854
H         3.34875700277809   -2.28371671547618   -1.00526848361247
H         4.59874376187415   -1.72614602977306    0.14268780303466
H         5.59174647469678   -2.20292046975594   -4.48105830528791
H         7.19622245434622   -2.86936187641035   -4.58962759414817
H         9.47485895402511   -1.60989204893552   -1.11662742518405
