32
 energy: -49.206609070351 gnorm: 0.299041189569 xtb: 6.4.1 (79825abcba525fcdf90b791dcacef51065a7a4e7)
C         2.64869778539354    1.61242289142725    1.72931902489026
C         3.58248383151243    1.06126577448289    0.61959576160682
C         3.53007578444516    2.09776552248149   -0.54996352523393
C         4.28626592244044    1.86884224387948   -1.92295157385327
C         4.38025872917177    0.26968382650692   -1.59147672537450
O         2.95874988981018    0.02784103561116   -1.30873034492050
C         3.17163466777542   -0.30565760737871    0.09063788035558
C         3.99861234280501   -1.57378739397380   -0.22951392439554
C         4.71983583062151   -1.38978259203093   -1.59929379882890
C         3.76939905784114   -1.89094834275954   -2.67441847316445
N         3.11701915127333   -2.35490974975427   -3.64867737488990
C         6.15766655182304   -1.68251958508845   -1.72223368380891
C         6.89305259483237   -0.84936547614754   -2.54448195511588
N         6.39076563134167    0.25255324156351   -3.12814589984073
N         8.23822787317402   -0.97167957767104   -2.54996419108120
C         8.56756421896399   -1.88916271840996   -1.67104846450250
S         7.27971281533440   -2.66868846249188   -0.85227250307019
H         2.95051879895109    2.63270997814260    1.99764042256961
H         2.62980373161478    1.01918301041589    2.65259029442426
H         1.62243380123978    1.58810197702970    1.33767152647360
H         4.57886925189685    1.10440066559083    1.05949629327206
H         3.83790434180641    3.08958139252012   -0.20488473949066
H         2.45487485806313    2.07328807111069   -0.80452217552940
H         5.31572328843171    2.23219198149369   -2.03214274317876
H         3.74336933839311    2.09532284085982   -2.85473716574738
H         4.95202139507965    0.30262380276369   -0.64278409755068
H         2.15444806309302   -0.51733475329066    0.44643036791203
H         3.24114128666866   -2.36333444045467   -0.19814700911665
H         4.81884210461482   -1.76045056058774    0.47487774458092
H         5.56611437652312    0.01962993295224   -3.67493092317392
H         7.00479575378627    0.85984713000514   -3.66334976828029
H         9.58911986204692   -2.16000504881419   -1.43983457994650
