32
 energy: -49.229735044614 gnorm: 0.285552025025 xtb: 6.4.1 (79825abcba525fcdf90b791dcacef51065a7a4e7)
C         2.26204006827438    0.93437940397324    1.91892642500467
C         3.41024587153309    0.88813494239486    0.87647683141579
C         3.44858169315923    2.19221088738160    0.01458150514677
C         4.37329458847414    2.25241317546141   -1.27017812930654
C         4.42962291269109    0.62585578601828   -1.43496906545348
O         2.98623611117658    0.35538253042797   -1.38398289333789
C         3.04884883085520   -0.25256061976705   -0.06441573879174
C         4.03341973721095   -1.38778843099490   -0.43376701184394
C         4.80562237676123   -0.99900717634900   -1.73102189345327
C         3.98469146585047   -1.40522536763716   -2.94405506927669
N         3.20643592188409   -1.74791347040384   -3.87514224324454
C         6.24023812031647   -1.29630383725283   -1.87819097359096
C         6.97223393957998   -1.60911963788455   -3.00839405415592
N         6.58870068777908   -1.57908086951137   -4.29648588275847
N         8.27229147079566   -1.90868293945041   -2.79720796459075
C         8.61121823045767   -1.84992016276026   -1.53055640224247
S         7.28220107786347   -1.48571818081193   -0.51188765303919
H         2.43759410407752    1.70889850933811    2.67614434111685
H         2.03978879441227   -0.03269879747982    2.38805807310038
H         1.35794787936840    1.23950199599914    1.37421131288205
H         4.32560275876012    0.66357546761527    1.42406409901446
H         3.77344409680381    2.94623148906344    0.73808261809500
H         2.43506993589061    2.56011403443037   -0.22810651626087
H         5.41084529067544    2.53456873447278   -1.05199244155960
H         3.97782091887468    2.74548912421161   -2.17280276837917
H         4.94786539533696    0.58271309127343   -0.45640954717347
H         2.02901196717573   -0.55818077019001    0.20501550262573
H         3.55315953626358   -2.35823654801809   -0.59411482952037
H         4.80938289623230   -1.50756918272122    0.33260194234350
H         5.60393325144059   -1.58139012413721   -4.54848703001784
H         7.19730296393159   -2.08535375612993   -4.93333207336735
H         9.56252854827130   -2.16056918074368   -1.11958532661281
