32
 energy: -49.232923516806 gnorm: 0.287690940971 xtb: 6.4.1 (79825abcba525fcdf90b791dcacef51065a7a4e7)
C         2.51382923736448    1.05257163771011    1.95465944763539
C         3.51446302331042    0.81769932589740    0.79242741664496
C         3.66224676110127    2.16357580576688    0.01029972666641
C         4.39478686298111    2.14238447519048   -1.39407255178555
C         4.30571817689000    0.51348330503492   -1.51558633778341
O         2.85484082834433    0.32273217677382   -1.38258352608392
C         2.97682156731313   -0.30905325656464   -0.07845908223146
C         3.90007186264103   -1.49422124088077   -0.44930696300097
C         4.71273247789291   -1.11734773163060   -1.72518590522033
C         4.01237538504870   -1.54687772657018   -3.00401121990696
N         3.29785858631275   -1.97863764394719   -3.94904522343280
C         6.13231279901310   -1.49022172268890   -1.84318192576881
C         6.94169230828234   -1.44944913062114   -2.96312522940251
N         6.61389059694411   -1.47809716225266   -4.26654609882997
N         8.25883959954876   -1.60263860648585   -2.70594180314711
C         8.52143310380580   -1.67684674173824   -1.42209274817081
S         7.13224015295887   -1.50731182804124   -0.43314555319811
H         2.83257370778736    1.91020452693023    2.56041998299656
H         2.53872111281333    0.16674879151320    2.60228484814034
H         1.54441134586823    1.20043188230570    1.45911597319574
H         4.45421657605268    0.63037491469422    1.31197513146678
H         4.22313935891172    2.85921628822254    0.64198028006250
H         2.66561001993879    2.59822376259259   -0.18782307034467
H         5.44702124885993    2.45032796745533   -1.43532554413927
H         3.83396534398275    2.70452872154107   -2.15809324322472
H         4.84763988487806    0.53969040552179   -0.54933101653979
H         1.98948889799978   -0.64181355953350    0.26868480371141
H         3.32849783503699   -2.41114352376561   -0.62448540007767
H         4.63528492280363   -1.76716825277785    0.31799304764014
H         5.67975984243388   -1.15883747363434   -4.50892967669369
H         7.36441648176279   -1.47986204120545   -4.95137440919615
H         9.53780185418912   -1.75406783733716   -1.05956988879221
