32
 energy: -49.226007485445 gnorm: 0.281530205909 xtb: 6.4.1 (79825abcba525fcdf90b791dcacef51065a7a4e7)
C         2.30182983945940    0.77997666997727    1.93966411130393
C         3.42841262385361    0.59181169936670    0.88960628243208
C         3.83374544110707    2.01569456118859    0.38640636421129
C         4.42055150389794    2.26314742632167   -1.06402505187994
C         4.44892300273030    0.67837498573798   -1.46863501869540
O         2.99737563139340    0.52714875382960   -1.29757454106551
C         2.98511674069067   -0.39962243252953   -0.17698648641333
C         3.90553956446046   -1.52282874118454   -0.71156279361764
C         4.71465262445452   -0.93583787122277   -1.90784694465128
C         4.03995852622621   -1.17983367421587   -3.24786342507280
N         3.49776456156353   -1.28077964831950   -4.38182804430230
C         6.14205154196852   -1.29192306803133   -1.97031320005586
C         6.89339909740666   -2.08497608207033   -2.81741081376035
N         6.44551594627203   -2.60444982809588   -3.97358050209367
N         8.20956125022597   -2.13961950103518   -2.51871598915969
C         8.50917925530342   -1.39700212128992   -1.47877413026474
S         7.16644135886087   -0.62023445417258   -0.75055532444856
H         2.59252219738342    1.52957345523162    2.68644429908857
H         2.27401704308953   -0.17034261206697    2.48815302673524
H         1.37042242133797    1.08101736979844    1.44061325860748
H         4.28995324648260    0.17719955905506    1.41305783927783
H         4.57846555745786    2.46522279725238    1.05037384978705
H         2.94149330036720    2.66668387814096    0.42584377430543
H         5.36596004475351    2.80193071291211   -0.92386991309767
H         3.69166129121309    2.74268014385540   -1.73709412882566
H         5.04293516965574    0.43646562073382   -0.56495105769206
H         1.98544415408841   -0.81018444457342    0.01835335060864
H         3.32092849730896   -2.37515301367811   -1.07198485655687
H         4.67361232893990   -1.74234465302255    0.04054399265443
H         5.45357111073373   -2.64110571070146   -4.19262068670875
H         7.03417829471167   -3.26157773469639   -4.47750667481435
H         9.42052430193048   -1.33466607102478   -0.89915720466600
