32
 energy: -49.230255876085 gnorm: 0.280243783008 xtb: 6.4.1 (79825abcba525fcdf90b791dcacef51065a7a4e7)
C         2.22637466872885    1.12242521034647    1.80543701293071
C         3.41160323322145    0.84389849339974    0.84373415421113
C         3.76348338141880    2.21679071707667    0.18320818320229
C         4.57299484722041    2.17958303533554   -1.17790619196720
C         4.47962160092035    0.56295970711057   -1.40991548742341
O         3.01708790879970    0.42256499571218   -1.38978213252593
C         2.99773578978268   -0.26788259566977   -0.11006328830819
C         3.95187440577092   -1.42986049014368   -0.47608143819031
C         4.74351273031202   -1.07097290138830   -1.77023230133145
C         3.87925471699922   -1.52372607326362   -2.93576346202680
N         3.20459043530621   -2.07604475345074   -3.84670381190009
C         6.19134018542224   -1.30039938596434   -1.90924848874929
C         6.96062399845294   -1.56105686941465   -3.02785954096459
N         6.51424740631708   -1.74057886203120   -4.28312860776867
N         8.27386540509274   -1.79408071519641   -2.81435495310074
C         8.56437423561382   -1.70289259621476   -1.53763261074229
S         7.20488353995132   -1.47434965395472   -0.51970880799134
H         2.43262055092413    2.02377253093966    2.39629543939398
H         1.97805897898098    0.27261533020120    2.45419187053832
H         1.33149667739372    1.34764850508733    1.20906055180112
H         4.25570498512775    0.45968696610573    1.41647383217541
H         4.19253473971358    2.81799403380528    0.99067707508820
H         2.86845889049999    2.79241872005666   -0.11518726850713
H         5.57739472776019    2.59515905706295   -1.02889057481327
H         3.99753726254542    2.70137672379558   -1.95946518962613
H         4.92484230687759    0.37311382162313   -0.41304420307204
H         1.96636450445782   -0.60389039199143    0.06150631771048
H         3.31862845212357   -2.31140172891831   -0.61755735199054
H         4.60288368227001   -1.73236783138118    0.35365577833204
H         5.56063975460676   -1.51597670298150   -4.55416943372372
H         7.28945921776546   -1.69775094641069   -4.93848687291721
H         9.55418845566824   -1.79925997116432   -1.11175411011946
