32
 energy: -49.225822585633 gnorm: 0.282561953686 xtb: 6.4.1 (79825abcba525fcdf90b791dcacef51065a7a4e7)
C         2.07709097140886    1.11691693212945    1.76439824953470
C         3.25199897702742    0.82757961613561    0.79326933529899
C         3.49552762896637    2.17428013778729    0.03693689519970
C         4.47556028342115    2.26701231010824   -1.20413615367568
C         4.46789236082748    0.64134941664535   -1.38628779413297
O         3.02282779261157    0.38485015641728   -1.45782344868234
C         2.99625478037184   -0.31272996534755   -0.18210853127842
C         4.10962933699878   -1.37421727428427   -0.34999007300488
C         4.89717278078652   -0.97812118708601   -1.63575880372115
C         3.99964298509660   -1.41627541271879   -2.78155608774092
N         3.17547299866143   -1.87227317253657   -3.61991760578610
C         6.27855036742699   -1.44879368055722   -1.83179384675072
C         6.95486453932278   -1.64853006931181   -3.02079979051503
N         6.37484207523657   -1.39100915650009   -4.20588948103478
N         8.28956657383401   -1.83822364485787   -2.93669183427564
C         8.68996170442737   -1.90076419521942   -1.68829165297778
S         7.44231949555477   -1.57465146230312   -0.55972836248512
H         2.23128557627048    1.95226601336503    2.45901611046884
H         1.84109230923656    0.18602925467064    2.29588027494700
H         1.19688992329355    1.31119495128283    1.13614734281009
H         4.05428977561664    0.64390857087017    1.50793808855132
H         3.85173336768785    2.92844222848944    0.74538133351257
H         2.52410933121176    2.48872176684720   -0.38606338457971
H         5.50444299270652    2.51728015009204   -0.91691744039655
H         4.08288805657404    2.89948594340790   -2.01656471886833
H         4.99717055458318    0.50684094815716   -0.42203297129997
H         2.04506244780609   -0.83634419055809   -0.01741065570036
H         3.65025069428378   -2.35417302639656   -0.51366297891435
H         4.72702772113478   -1.40679350964049    0.55640147977823
H         5.37808127324528   -1.58793774528426   -4.17484345653417
H         6.88866887607014   -1.76904284730357   -4.99668312536540
H         9.63273174184303   -2.22109111188016   -1.26524711471899
