32
 energy: -49.231056151512 gnorm: 0.287067117789 xtb: 6.4.1 (79825abcba525fcdf90b791dcacef51065a7a4e7)
C         2.33229772161820    1.05692283416145    1.88616747519697
C         3.42437483358885    0.92552271421821    0.79194726803268
C         3.64233350762930    2.21495433568388   -0.06526178949285
C         4.40790826304512    2.17403807266275   -1.45146045042145
C         4.40521539815094    0.53870852783291   -1.41013382578880
O         2.96893426637651    0.22852168028355   -1.40892523542373
C         3.02055626822448   -0.27870488986974   -0.04700413707941
C         3.98381365122802   -1.46053832224667   -0.31147979256952
C         4.74186198860595   -1.10713729825333   -1.62707412127712
C         4.00562489684755   -1.57034893661786   -2.87358131708150
N         3.34385666351395   -1.85651590506155   -3.90809155124637
C         6.15748931415891   -1.46760813180160   -1.81207798030359
C         6.92507177466668   -1.42925812203696   -2.96115458719016
N         6.56294872826857   -1.25560366544904   -4.24407768274045
N         8.25969962196838   -1.57398569363311   -2.81179007079361
C         8.54301458987128   -1.77738528335037   -1.54644749626531
S         7.21983980274939   -1.66739377054028   -0.46306111666453
H         2.58767639912809    1.78367688531361    2.66763296816807
H         2.21827025124044    0.12103992813343    2.44816507475368
H         1.33414390926625    1.27194841830047    1.48039660352865
H         4.35926376610036    0.76786759229123    1.32979906103791
H         4.02404320469380    3.01520784558788    0.57616516372443
H         2.61062470818806    2.50275306065251   -0.33766797805628
H         5.43312456163045    2.56356323690066   -1.48195463550564
H         3.76409834056312    2.59041626949333   -2.24291008965803
H         4.87635213541976    0.43452857956520   -0.41254071986559
H         2.05157599686641   -0.72011482479092    0.22187985925754
H         3.41040458991804   -2.37282604657593   -0.50399989015546
H         4.73373000035360   -1.64513995918724    0.46783742705685
H         5.59011853553089   -1.29416070645397   -4.53629606664967
H         7.23065408002695   -1.55187636885990   -4.95024627795028
H         9.55095635327369   -1.90799549612561   -1.17579168085800
