32
 energy: -49.228389773767 gnorm: 0.282411749924 xtb: 6.4.1 (79825abcba525fcdf90b791dcacef51065a7a4e7)
C         2.21169033043977    1.08621916932967    1.95503100683498
C         3.33239656013770    0.90269736275464    0.89788694823461
C         3.56574729752478    2.23250634899277    0.10915204508515
C         4.26643753061301    2.30104200335625   -1.30988341317715
C         4.37072376461590    0.67211935671190   -1.41829582542878
O         2.93911572614684    0.35607811156753   -1.31961865422815
C         3.08932998696970   -0.28479882837847   -0.02289774214396
C         4.13183751745447   -1.37136242068114   -0.37940863906865
C         4.79314857930094   -0.93959246641181   -1.72349211012227
C         4.07867237315246   -1.38735572045735   -2.98817470410777
N         3.69101105598391   -1.80650144198242   -4.11248591974662
C         6.23091443213056   -1.19845177758064   -1.90784930508106
C         6.91090265484290   -1.64185243682273   -3.02679634166592
N         6.65024916897662   -1.42612367459991   -4.32783496428382
N         8.14415988413524   -2.14076948161257   -2.79303213083713
C         8.46070138051644   -2.08957701989981   -1.52027472841349
S         7.18368277173453   -1.55513079535193   -0.51022205542217
H         2.44751227660692    1.98429728299135    2.53977175907749
H         2.06796346632879    0.25462169553022    2.65682058262030
H         1.24988726700630    1.20924263116780    1.43831335702802
H         4.23414535619773    0.70337697058444    1.47691846163322
H         4.22079209590341    2.81025999186815    0.76843464708794
H         2.59544137031687    2.74661281329534   -0.01597682419379
H         5.28662262270400    2.68929604767109   -1.42037949446031
H         3.57250697042732    2.63839683549140   -2.09658961454223
H         4.92098600317900    0.56743405333283   -0.46212233257500
H         2.15158268939375   -0.74886901914917    0.31076820072355
H         3.58974395519834   -2.30561167130071   -0.55673245669664
H         4.87410336233086   -1.56469827445141    0.40509775339478
H         5.68715243339639   -1.47921241711371   -4.64862005973982
H         7.15289930038413   -2.01366170010581   -4.98694341499378
H         9.45764609807149   -2.32458660909913   -1.17204623815899
