32
 energy: -49.224937727705 gnorm: 0.284307949796 xtb: 6.4.1 (79825abcba525fcdf90b791dcacef51065a7a4e7)
C         2.14937181589942    1.13649999491646    1.77634872402145
C         3.36399065451382    0.86234476102285    0.85073743650026
C         3.59826513928113    2.19810186326157    0.07239581115098
C         4.14160604816254    2.27027409088479   -1.41384017195361
C         4.31383826667289    0.64470734996228   -1.47618337641228
O         2.90406739692355    0.27930571776578   -1.28086679875801
C         3.10302778169364   -0.37454166340069    0.00274960319225
C         4.23358883195954   -1.38399284912563   -0.30931197678170
C         4.84346717631879   -0.95161473946367   -1.67730889716341
C         4.14367710423397   -1.52440986709594   -2.89902484059377
N         3.40921933385210   -1.85020781027826   -3.87086208486138
C         6.27134593491589   -1.27350044766700   -1.83767784613450
C         6.94706974024323   -1.53509358003040   -3.01496157249226
N         6.58885233231946   -1.17932673970765   -4.26087123387157
N         8.22170015314742   -1.95405406009582   -2.85915160659323
C         8.48798165479413   -2.18775939753747   -1.59534522441146
S         7.29148697310443   -1.64851778192320   -0.49342206286742
H         2.27446799830668    2.12267441720150    2.24098728302846
H         2.11406769492870    0.41204675847518    2.60014572985754
H         1.21519344173622    1.14413438121432    1.19803261965914
H         4.19117188358969    0.71399361423458    1.54494212924280
H         4.16812144568752    2.87742622619827    0.71373714663339
H         2.56722603614738    2.56624047341712   -0.07889402873576
H         5.11829603487932    2.76988857872634   -1.42763283833757
H         3.47573343510017    2.63438871717242   -2.21276992420814
H         4.84040329928427    0.78790968564206   -0.51169509356326
H         2.15048714288344   -0.81999169347964    0.31945877509952
H         3.88227323344825   -2.42048262191508   -0.28938394375077
H         5.02212288058326   -1.24140080210327    0.44013394322171
H         5.60914114778292   -1.26785137518037   -4.51700830528962
H         7.20274097569028   -1.52795247096959   -4.99154412241402
H         9.41916270037428   -2.69060352552840   -1.37075447906277
