32
 energy: -49.232039742327 gnorm: 0.272134017027 xtb: 6.4.1 (79825abcba525fcdf90b791dcacef51065a7a4e7)
C         2.53112915666954    1.30376880441367    1.82265113811856
C         3.56751142951570    0.92582014328571    0.73165028330410
C         3.83202325218886    2.21800448340233   -0.10813563142015
C         4.50811728942765    2.06355402719503   -1.53234329827685
C         4.31365531589876    0.43968763904629   -1.56784470493136
O         2.86603191315210    0.30147613976833   -1.35712002990950
C         3.00700471071753   -0.26896546171907   -0.02689608274723
C         3.95562524385013   -1.45618137377301   -0.31875200001627
C         4.58809771929308   -1.22443122278197   -1.72466395793690
C         3.87220619969334   -1.86138652844007   -2.90456967605350
N         3.62715771654155   -2.47324610805956   -3.97956699451265
C         6.04028263917295   -1.45876113977492   -1.79110805729913
C         6.85653635958509   -1.14060654838180   -2.86047147894398
N         6.47190575761116   -0.71909694958352   -4.07766891497184
N         8.17714683484771   -1.33101355517582   -2.65018485750656
C         8.42471969004267   -1.75203553392736   -1.43191609905122
S         7.02112068775149   -2.04154428677380   -0.49238950598725
H         2.93416126484425    2.09648471957326    2.46549220254104
H         2.33766855500313    0.43269881893846    2.46181501043846
H         1.63480772751667    1.67648972429269    1.30798226703740
H         4.44833965220684    0.70873537808650    1.33594561709873
H         4.52207355216181    2.81107483080619    0.49984023584911
H         2.88526268957050    2.77760026877769   -0.21746667199564
H         5.54348163733262    2.42352072600081   -1.48572950016529
H         3.99091798107823    2.60956658253664   -2.33771880850491
H         4.84030834952373    0.33480592805015   -0.59848836932869
H         2.05989539246599   -0.66654939497989    0.36165900190245
H         3.47908482672983   -2.44097981544707   -0.35356707264325
H         4.79658373753910   -1.53412368161729    0.38160607425874
H         5.51136436415199   -0.81550033806860   -4.39601374665157
H         7.24485711476645   -0.63957514590997   -4.73227148083105
H         9.44485154143376   -1.98561896619467   -1.15776076989207
