32
 energy: -49.233771215260 gnorm: 0.280808313388 xtb: 6.4.1 (79825abcba525fcdf90b791dcacef51065a7a4e7)
C         2.61851121742302    0.98084494720615    1.97671014466021
C         3.62257761490881    0.78417581665328    0.81035334105047
C         3.85551638384228    2.14182337645568    0.07043450144066
C         4.55043733996586    2.12829430809429   -1.35302164436921
C         4.34679812169662    0.51795978206599   -1.55642184661859
O         2.89534487306466    0.43920002874856   -1.34147722463028
C         3.01932423584602   -0.28677901784457   -0.08754092587876
C         3.87035796058184   -1.49721762136621   -0.54044532617810
C         4.61144917630677   -1.12713325319325   -1.86110400954278
C         3.84492583935337   -1.51294192335007   -3.11568914508928
N         3.25709080750561   -1.90443763760796   -4.16030448578626
C         6.05385053607140   -1.41882546405355   -1.91170359208469
C         6.96718082498503   -1.58708903683377   -2.93568881542129
N         6.64079274287099   -1.65451201851777   -4.23803500348425
N         8.27908261037309   -1.56054152694345   -2.61522626913229
C         8.39596169100234   -1.54260831000841   -1.30803528368721
S         6.94390256314196   -1.28218172426898   -0.43607314041641
H         3.02776377863293    1.71909450778367    2.67783635576465
H         2.42824823198244    0.03923346043487    2.50764157516264
H         1.68256507059305    1.44490018684497    1.63633596831181
H         4.51767103337023    0.47052900027471    1.34755949324417
H         4.50365310691454    2.71749073831191    0.73831352161288
H         2.83222011712662    2.53038350738952   -0.08234657860526
H         5.61891133890500    2.37004859929611   -1.41340693906441
H         3.96273936224499    2.68275257657047   -2.10231575679252
H         4.93637153711449    0.37114319378426   -0.62967302751692
H         2.05929245859432   -0.65357764538909    0.29957901785914
H         3.17251556467401   -2.33165146675605   -0.66237552130111
H         4.60452026216659   -1.86354964600635    0.18797363433746
H         5.71525971338660   -1.96139614973805   -4.52524146949940
H         7.34888256538908   -2.09208733743257   -4.82063150156476
H         9.33166969358561   -1.58083951755240   -0.76638939667181
