32
 energy: -49.228118144712 gnorm: 0.285407446351 xtb: 6.4.1 (79825abcba525fcdf90b791dcacef51065a7a4e7)
C         2.22291267609473    0.95665095599610    1.93367176994368
C         3.32280403912065    0.84140839588350    0.84547398836642
C         3.47757248727029    2.23200940014652    0.14746050056811
C         4.27748373879689    2.26418571078347   -1.21944558248284
C         4.49430685070680    0.64969981162030   -1.36924835959617
O         3.03677422634214    0.46399996630274   -1.35391703405692
C         3.00438867723282   -0.29611962814191   -0.11458573074596
C         4.06443968198927   -1.37981292173332   -0.42513866500332
C         4.84054983817233   -0.97212178307432   -1.71423096485331
C         3.99979410734594   -1.24702461512641   -2.95033310055922
N         3.43138441427520   -1.47208785579639   -4.05319170760250
C         6.22803155465202   -1.42600144849042   -1.90672534954914
C         6.96481826563115   -1.78571731798709   -3.01973048303481
N         6.54330260858281   -1.82212710092204   -4.29573186083391
N         8.25531843002382   -2.12412046400155   -2.80859083706998
C         8.56771708906336   -1.97546790589810   -1.54247864275298
S         7.33130299554249   -1.27544507343847   -0.58442649383771
H         2.32298624324220    1.94687675629698    2.39574988234083
H         2.22055679024831    0.16500858104998    2.69394618041387
H         1.22473495851399    0.96361824853274    1.47455333647535
H         4.25320413429454    0.61099999918275    1.36453529242880
H         3.99247172030164    2.91884855698915    0.82618523137194
H         2.44370442047560    2.58455026039384   -0.02072999996480
H         5.23667384574792    2.79594102460866   -1.24975779749807
H         3.66446916981778    2.69182185182050   -2.02913380471561
H         4.98934165757877    0.61622488868405   -0.37837235378363
H         2.01437941804487   -0.74337935413924    0.04636302404208
H         3.63099701988558   -2.38450074422864   -0.45447572301213
H         4.78028255653921   -1.53242180098157    0.39221507128077
H         5.53625561658984   -1.87142079298984   -4.42497312458036
H         6.92223023926848   -2.61318860267814   -4.80848676224021
H         9.53009486025483   -2.23755745304403   -1.12351628914312
