32
 energy: -49.230714873367 gnorm: 0.275698932255 xtb: 6.4.1 (79825abcba525fcdf90b791dcacef51065a7a4e7)
C         2.46801390818985    1.25336201373428    1.79774978910682
C         3.55764861100656    0.98769821541606    0.72567925458327
C         3.80186197541225    2.26292831302641   -0.14558148999962
C         4.41558020641072    2.13705206260248   -1.60051470791449
C         4.40592877682478    0.50157336876613   -1.56683825345616
O         2.95535255963397    0.33264016135998   -1.40432354416921
C         3.04756174690543   -0.21257197395306   -0.05932767292865
C         3.98327715985020   -1.41132772416093   -0.34562075795388
C         4.67486832586983   -1.16372394754954   -1.72065240070971
C         3.99620874174962   -1.91658243318865   -2.85335512621612
N         3.45072222926394   -2.57399376889903   -3.78087597075175
C         6.09146462019708   -1.55806564674914   -1.79756730837720
C         6.89479630953826   -1.18066012377845   -2.85740402601268
N         6.43703108123577   -0.55772054847998   -3.95721215388206
N         8.22177237376673   -1.35477208268403   -2.67490234429694
C         8.44064726705551   -1.82200112167776   -1.46803806036298
S         7.06400485190618   -2.19442653101849   -0.51789561144205
H         2.70165796512628    2.09061078455903    2.46745344487181
H         2.29147963468916    0.37347733295924    2.42969834571981
H         1.47088242531821    1.41428563838141    1.36528079844847
H         4.41236436742079    0.79527526015725    1.37420942755799
H         4.51490081165205    2.78894590984883    0.49661599840067
H         2.84041430973544    2.80036385301536   -0.23634331400395
H         5.43822726358275    2.52152137304522   -1.70103606455134
H         3.73074045275354    2.55862540833495   -2.35385723717265
H         5.03290776063482    0.47308752779467   -0.65354684274275
H         2.09307820806271   -0.58385682705305    0.33712261390533
H         3.35797720989652   -2.30499509872492   -0.43775883593505
H         4.78707951426583   -1.54179725694232    0.38967992638886
H         5.48420101457130   -0.47419776350375   -4.30132785770221
H         7.14017083301387   -0.32600662792172   -4.65304631800760
H         9.41661494526774   -2.09281528513089   -1.08785634189309
