32
 energy: -49.232654882716 gnorm: 0.280875116344 xtb: 6.4.1 (79825abcba525fcdf90b791dcacef51065a7a4e7)
C         2.41347596686335    0.94442577593951    1.92618115173789
C         3.48679100333708    0.72890670988495    0.82674373381935
C         3.73836648688619    2.11399459738407    0.14616414447091
C         4.43645575984852    2.21340687040681   -1.27232594746602
C         4.36113818612265    0.58603305994028   -1.42064858952771
O         2.91550451793638    0.33363965552743   -1.34607184476668
C         3.02146479491838   -0.39295793910270   -0.09084236125686
C         3.95330088326106   -1.53540698539832   -0.56098499405956
C         4.73605091488255   -1.02006012403782   -1.80679316677473
C         4.05277247341054   -1.23335990266911   -3.14769735212061
N         3.34576710697953   -1.48363028912721   -4.16137792042978
C         6.14747161053978   -1.43295535685152   -1.88146253439651
C         6.95214850387572   -1.82351084584762   -2.93549863778600
N         6.47230338296221   -2.19640099232783   -4.13461591214021
N         8.27423078719558   -1.89358525029544   -2.66777615828976
C         8.51092130835165   -1.51120103491699   -1.43469444910862
S         7.13884466077415   -1.04732826087686   -0.51881049395522
H         2.85321077964942    1.49413785515592    2.76792218129410
H         2.08612443766049   -0.01722125239455    2.34186895398595
H         1.53018126356330    1.47907613987364    1.55049978328166
H         4.35920688709776    0.43393893509524    1.40987454370486
H         4.25725310220617    2.69367357519886    0.91575200333627
H         2.74205164567858    2.58123107031017    0.04367951411075
H         5.45985481005330    2.59553985162840   -1.17055672376813
H         3.85048982604900    2.74864503018432   -2.03679869880863
H         4.86474724078388    0.33597263698195   -0.46573341023818
H         2.03526201745348   -0.78012914480982    0.19823658467652
H         3.28641544795330   -2.32884449245812   -0.91291051420918
H         4.69082742925541   -1.97442152111721    0.12246833529252
H         5.56233653084937   -1.85223629032347   -4.42921360374019
H         7.14927211499636   -2.16970878908643   -4.89177038724009
H         9.50764511100717   -1.41797179963091   -1.02452213241130
