32
 energy: -49.212872291878 gnorm: 0.283823294945 xtb: 6.4.1 (79825abcba525fcdf90b791dcacef51065a7a4e7)
C         2.49637180499231    1.35052152955317    1.83177246944924
C         3.50364369296600    0.97036962829316    0.71458665411884
C         3.81142640205455    2.23558878689015   -0.15111395214355
C         4.07224200815454    2.07668712679203   -1.70547911207768
C         4.19769072303590    0.44896033115678   -1.60162373251447
O         2.76959906648168    0.20377163749193   -1.35757957908384
C         3.04580562739309   -0.28421459354629   -0.01580758801498
C         3.94310630077340   -1.48950145329511   -0.38550679749877
C         4.67658760620043   -1.17120474464130   -1.72379315966886
C         4.00343901675359   -2.02463841386982   -2.78629595457350
N         3.57967469302875   -2.91041045204519   -3.57741657524700
C         6.12877590387068   -1.40827419714545   -1.77959263755801
C         6.94853214932476   -1.01280910170236   -2.82009139458249
N         6.71012488145647   -0.21518625908463   -3.87561989613149
N         8.24833266663306   -1.37352589029109   -2.75016762481187
C         8.48853257010462   -2.01566125049273   -1.63092824917103
S         7.14989909254709   -2.09193826013045   -0.56375538238790
H         2.83443285201297    2.21862889047613    2.41158483099889
H         2.42819173858992    0.47977142930707    2.49650258093703
H         1.50021572691385    1.57328657285344    1.42526805530658
H         4.39609565265892    0.81150512198845    1.31993661293655
H         4.74684156612444    2.60211556753460    0.28269833276818
H         3.01655390930485    2.94428923741590    0.14448319607416
H         5.01271495236598    2.59708709396021   -1.92553073785350
H         3.29440058544443    2.37079895174681   -2.42846977696979
H         4.87074201574383    0.42414789670466   -0.72162282696687
H         2.23416654222446   -0.73643965935298    0.56968245106065
H         3.21663027985368   -2.26636872527260   -0.64404241884004
H         4.54142530849404   -1.69157579981146    0.51169325952504
H         5.73328346013870   -0.00611229823090   -4.06362450329383
H         7.39166895070870    0.00783723178243   -4.59537001752913
H         9.43528389481913   -2.49219678898061   -1.41420914796712
