32
 energy: -49.232620588048 gnorm: 0.286011133773 xtb: 6.4.1 (79825abcba525fcdf90b791dcacef51065a7a4e7)
C         2.47565708282997    0.69533216123953    2.04677394614048
C         3.50262023881707    0.64817080908513    0.88473317539564
C         3.66286554117135    2.07649597223564    0.26897678860714
C         4.52574373462714    2.19555681071013   -1.05412234305103
C         4.37802460097095    0.60873778514093   -1.42317830935076
O         2.91990870294289    0.42995028932748   -1.39071471740871
C         2.97019121756645   -0.33068560949456   -0.15229742151083
C         3.82023956558329   -1.48167161674772   -0.74152693817021
C         4.71714085445431   -0.97705468259307   -1.91252984841858
C         4.02449244493431   -1.18460651783458   -3.24952298603652
N         3.47748362106177   -1.17172881988094   -4.38559325179598
C         6.16333676575540   -1.25275973028414   -1.93842311111379
C         6.88362052774691   -1.99310032062261   -2.85718189227980
N         6.44158860394306   -2.70595529479144   -3.90771803671294
N         8.19410464751728   -2.04898856616036   -2.53469904263486
C         8.51750656785290   -1.41853845182396   -1.42985767773033
S         7.18221967414078   -0.65155087193881   -0.67795697941645
H         2.79701578531824    1.39411740734169    2.82940144389208
H         2.23373501107849   -0.28728508406483    2.47181210866389
H         1.55134449654395    1.09465694750655    1.60702061383743
H         4.44950284091048    0.38651174757000    1.35707296454954
H         4.17082486861765    2.77009590950149    0.94605356234904
H         2.66667172129782    2.49446807738141    0.03583846929886
H         5.58989829722759    2.42438871543724   -0.91650244612131
H         4.00610343085503    2.84786374488668   -1.77434742634501
H         4.97406521079755    0.34730746056803   -0.52629198836678
H         1.95083502382418   -0.64228622542932    0.11205481092543
H         3.16272776265766   -2.27029263847286   -1.12084994157820
H         4.54644624588737   -1.89308684237420   -0.02938299750833
H         5.52277914440526   -2.54815234740881   -4.31288987259182
H         7.13929573108711   -3.23672462425369   -4.42130416981673
H         9.54242439975055   -1.22701722993240   -1.14131926212485
