32
 energy: -49.227925555346 gnorm: 0.284699407088 xtb: 6.4.1 (79825abcba525fcdf90b791dcacef51065a7a4e7)
C         2.71878343803097    1.22800444955283    2.11544041799926
C         3.50033768155697    0.91205799994671    0.81291707014625
C         3.64285788297440    2.19882187965197   -0.06393751507136
C         4.22799841166075    2.18150921423493   -1.53588737859004
C         4.27024476167200    0.54650367574887   -1.56735119075987
O         2.82777019754710    0.35201703793149   -1.36594884928294
C         3.00284510671624   -0.23966418834105   -0.04912129692682
C         3.88218219102985   -1.43229619861946   -0.49514549675905
C         4.65574285014495   -1.08591781236119   -1.80355824168602
C         4.07875246753783   -1.80054613189843   -3.01466463467635
N         3.45150377921896   -2.30098259239248   -3.98737351641560
C         6.09335296465078   -1.40024989709184   -1.85492802623603
C         6.95232998306112   -1.34766614236340   -2.93678939620149
N         6.76501790341281   -1.03808852557011   -4.23149265080889
N         8.25213539806273   -1.51589920037124   -2.61015375964625
C         8.47578637220448   -1.83605240801031   -1.35707245502619
S         7.01594375591730   -1.83637694355796   -0.45958979479355
H         3.21659731105373    2.04178181157411    2.65768186648865
H         2.60601938004378    0.34123206474881    2.75233867004428
H         1.71957777565838    1.56048789179178    1.80200806551975
H         4.51083395029799    0.67549267344474    1.14622044605546
H         4.18425584130664    2.87065194764802    0.60916657678996
H         2.64754395242865    2.66562119687142   -0.17753707280653
H         5.24654820090082    2.58899335565072   -1.55141815443825
H         3.56857638643387    2.67513682200029   -2.26783609265987
H         4.89614456894073    0.52815186600770   -0.65306024403916
H         2.00540577352689   -0.54814318691956    0.29149517400630
H         3.23918637019978   -2.27453575604860   -0.76958990452167
H         4.52807922961314   -1.80923051660005    0.30767774120105
H         5.82144254250349   -1.27527559750733   -4.52591521903271
H         7.54365920509689   -1.28411262712295   -4.83603537161480
H         9.44751529915807   -2.06171308295013   -0.93848971608398
