32
 energy: -49.234403147171 gnorm: 0.277410453923 xtb: 6.4.1 (79825abcba525fcdf90b791dcacef51065a7a4e7)
C         2.62145761166326    1.08951044361794    2.05708479627920
C         3.54529180280315    0.86100868321287    0.83171399407352
C         3.58084221141329    2.17203599542497   -0.01969120388254
C         4.14158535410189    2.21700725907581   -1.50052552347986
C         4.28157458721127    0.58850887662819   -1.56696252900977
O         2.85379538378227    0.33115324213726   -1.33386287286587
C         3.05878688261733   -0.29136842581714   -0.03570342228965
C         4.00192672455924   -1.43690263252067   -0.47477179266015
C         4.72941999289299   -1.02951232839207   -1.79200551702324
C         3.98079938558592   -1.61528196485703   -2.97810473874505
N         3.51952112249590   -1.99879237763197   -4.08724056047426
C         6.16953418145242   -1.33189969879500   -1.84491445244729
C         6.96963856004595   -1.47491886901127   -2.96313137775470
N         6.65381110154509   -1.34915978354966   -4.26375365258249
N         8.24236924750679   -1.83984337367743   -2.69578512290584
C         8.47773052814800   -1.87319741433883   -1.40496245161500
S         7.10374352941574   -1.60572491728995   -0.41641104272236
H         3.01171813903383    1.93763499714402    2.63367780605924
H         2.58555024542050    0.14356223695998    2.61261430127618
H         1.57113817477539    1.36593744638349    1.89090950534014
H         4.52585134386389    0.64513820394007    1.25604868070129
H         4.10723899618172    2.97473442177270    0.50577827174315
H         2.52140319144268    2.48564120844702   -0.04609227340280
H         5.07903419464038    2.77606667207248   -1.61174802571447
H         3.38828067328322    2.66941245102372   -2.16544367303942
H         4.88640355745336    0.60627749249145   -0.63858680389567
H         2.07621815041286   -0.69279042763555    0.24622415902896
H         3.33929196888924   -2.29497469289213   -0.62563049503427
H         4.70211853285410   -1.65705185888135    0.34073625203084
H         5.71723546072390   -1.12982433611795   -4.59237933916611
H         7.45099700084003   -1.43870220980349   -4.88725892957217
H         9.42414726799779   -2.14790025848047   -0.95861610541104
