32
 energy: -49.230455654948 gnorm: 0.281846580539 xtb: 6.4.1 (79825abcba525fcdf90b791dcacef51065a7a4e7)
C         2.63295667831987    0.78780904390601    2.14598846239406
C         3.54476199381903    0.69077114639655    0.89442504743699
C         3.65610863688002    2.09104003755821    0.20755081352050
C         4.50547553372832    2.22527403035143   -1.12281856348517
C         4.35407928115253    0.64422257910070   -1.51444762027445
O         2.90195559878385    0.46144926977387   -1.38386604280303
C         3.01417807474884   -0.28860468650686   -0.14306070803058
C         3.81067031716037   -1.47685171034758   -0.73315521609103
C         4.67559152194521   -0.96717489162915   -1.92582400553563
C         4.03244031169963   -1.33467979319347   -3.25310954271183
N         3.49254578733953   -1.51889685797170   -4.37766194723821
C         6.08291879581887   -1.40028358009847   -1.92945016040212
C         6.91417662554415   -1.95212958979777   -2.88627144673080
N         6.58768942712127   -2.45229585533307   -4.09060546938882
N         8.21845135386448   -1.96480005143688   -2.53528113843230
C         8.42306513417969   -1.36560376650517   -1.38557352216190
S         7.00698190137086   -0.82359354069831   -0.58710693628539
H         3.15685231932097    1.36143977323839    2.92094599659716
H         2.42671059090036   -0.17408424898940    2.63275763093658
H         1.68419722027724    1.31758997545604    1.98355481473487
H         4.52395626288628    0.38153538481786    1.26008722779443
H         4.12081015608202    2.84916646737967    0.84538568495588
H         2.67480089956563    2.48872122965049   -0.10921578370257
H         5.56581805707854    2.40865450606434   -0.90887104761165
H         4.03392114830111    2.94852427655371   -1.80750833652441
H         4.88931415821068    0.40676290963497   -0.57362254092609
H         2.04487410527477   -0.68193624310686    0.19131064209069
H         3.13109803879909   -2.28313149749582   -1.02679657592629
H         4.52301297780445   -1.96200954025325   -0.05420202454345
H         5.62958359040702   -2.41239030984436   -4.42782581583097
H         7.32149216698354   -2.53345867704239   -4.78862278054467
H         9.38921902936285   -1.37896531672760   -0.89899415806663
