32
 energy: -49.231948568859 gnorm: 0.277343788876 xtb: 6.4.1 (79825abcba525fcdf90b791dcacef51065a7a4e7)
C         2.29155554942514    0.96723521570513    1.93856737387178
C         3.32343642585967    0.75014058059661    0.80045136595976
C         3.65121980471765    2.13729622359115    0.15756371169370
C         4.51038334262094    2.24263575199504   -1.16911151887401
C         4.46361449046876    0.63807244717074   -1.48408315382079
O         3.00338323759673    0.47667139258909   -1.51228271114312
C         2.92535404048079   -0.26359497496708   -0.26300698070891
C         3.95332609936074   -1.39280606376047   -0.51340303245279
C         4.78792292273553   -0.99968103474446   -1.77007278180271
C         3.95629600806363   -1.39582048966234   -2.97914699497281
N         3.16949909243419   -1.58064629925161   -3.94704687471573
C         6.20202809560899   -1.39852885167764   -1.86699198087358
C         6.95507336411837   -1.73738026751544   -2.97565475345495
N         6.43608805105581   -2.19351152741085   -4.12881526402203
N         8.27620235106013   -1.92068940397477   -2.76233978242700
C         8.62714825465499   -1.66318081842370   -1.52409227337320
S         7.28923575274988   -1.26645458114121   -0.52949983158808
H         2.69069665718229    1.62401595868170    2.72176815798301
H         2.10495433926448    0.03074485111812    2.47975695718413
H         1.33968100075811    1.40845144172837    1.61228510260479
H         4.20262944662481    0.42918806742614    1.35916965042709
H         4.08547607125723    2.67503313948157    1.00597222928594
H         2.66085651301350    2.57242598459257   -0.06892894766006
H         5.53858621222745    2.61699707427331   -1.08923245354265
H         3.97194505212085    2.88187234156631   -1.88724474994832
H         4.91121498660055    0.51552975144216   -0.47777684895825
H         1.89481442810742   -0.60976099541282   -0.10737506785274
H         3.48148227406093   -2.35738527087224   -0.72572634747094
H         4.64764516881551   -1.43971142707970    0.33483546080734
H         5.57234682979740   -1.75252177098550   -4.43337388618896
H         7.15645482696446   -2.23811450072736   -4.84391268582760
H         9.64560841873305   -1.66800000462442   -1.15925391520669
