32
 energy: -49.231998190254 gnorm: 0.283459666410 xtb: 6.4.1 (79825abcba525fcdf90b791dcacef51065a7a4e7)
C         2.18322749004126    1.06565379513094    1.86797612128913
C         3.33398934830106    0.86741031065730    0.84637789441533
C         3.50393099587850    2.23239501457028    0.10281629620103
C         4.28434138093417    2.25955548224423   -1.27542443345670
C         4.45685224711868    0.63909296792963   -1.41810977319136
O         3.01871592419026    0.34393943704609   -1.35671643745919
C         3.05072117874712   -0.31981252084641   -0.06320118683678
C         4.17255608842691   -1.33602470627964   -0.38466913667607
C         4.88354858827808   -0.97149488788733   -1.72329742158381
C         3.97939790867288   -1.25742586890231   -2.91121378701625
N         3.36473031421244   -1.53314368026738   -3.97714229849190
C         6.27791432852290   -1.40432886459087   -1.91451797886486
C         6.97477468917643   -1.71845685982531   -3.06635991355031
N         6.49917977881371   -1.65281907104128   -4.32201982057199
N         8.28043814570785   -1.95988222221392   -2.81848080488191
C         8.54574858140470   -1.92429789913696   -1.53353927976870
S         7.24001781488204   -1.55661946344672   -0.48640250162132
H         2.36403501566377    1.98588094280599    2.43768540840488
H         2.17345363703316    0.18116617746312    2.51782726242410
H         1.24511536398016    1.20352557257260    1.31287788922516
H         4.19430485958594    0.71169283315899    1.49735123640602
H         3.99359960395598    2.92576980412298    0.79346277862920
H         2.50309246389498    2.62505809502829   -0.15329739197345
H         5.31861493439398    2.62558764410340   -1.28060947471394
H         3.61687094430956    2.77036698464337   -1.98803188094793
H         5.01081127418911    0.60186344236573   -0.45906928821618
H         2.07336913562518   -0.78674523055237    0.11796427800422
H         3.76270561766856   -2.35011914068260   -0.42669173998534
H         4.88208971213477   -1.39063214680568    0.45041630031086
H         5.51546831477545   -1.86672323592840   -4.46285156421430
H         7.12164965035382   -2.16619749049518   -4.93947904769680
H         9.54409598220151   -2.19153067184533   -1.21372609587850
