32
 energy: -49.226228633786 gnorm: 0.293368997653 xtb: 6.4.1 (79825abcba525fcdf90b791dcacef51065a7a4e7)
C         2.37631735916317    1.16676037720531    1.91146864645354
C         3.35815128412958    0.94385378276004    0.73098947872227
C         3.49100892759531    2.26107285537872   -0.10101413871324
C         4.30240422291158    2.18158988676630   -1.45919148534130
C         4.38120049452083    0.54811357788558   -1.41964212450971
O         2.93307664865856    0.29902150614611   -1.41628160747491
C         3.01404973986620   -0.29113758903242   -0.08965871336230
C         4.08093863991255   -1.38981957315954   -0.31144327644141
C         4.82309407348610   -1.07150843956947   -1.64493543847463
C         3.96200383860746   -1.54999990307058   -2.80250175962186
N         3.33737055462730   -2.08557982120237   -3.75802651745962
C         6.23128939862194   -1.46252816700464   -1.82453461011841
C         6.99982692220485   -1.30496892058065   -2.96275944114754
N         6.57228919143652   -0.89055769100209   -4.16802101600369
N         8.28569651439374   -1.69374129099902   -2.82175321895722
C         8.58311928828207   -2.01855184016881   -1.58531947910351
S         7.25227314280968   -1.92809701336875   -0.50954898398210
H         2.59955638353814    2.06798040167448    2.49631464489018
H         2.21201524131736    0.25762219527159    2.50408400220226
H         1.38807922554328    1.35065075554473    1.46788465728063
H         4.23537014140144    0.75166977773455    1.34881582131026
H         3.87389362578435    3.10242058587432    0.48470747882378
H         2.47016580232741    2.54778049751850   -0.41267794059532
H         5.33579304380622    2.55014365214757   -1.45722279894423
H         3.62185478603595    2.61479937472103   -2.20981559345900
H         4.93308235682252    0.46834909189143   -0.46199953611267
H         2.07930305794110   -0.77418553287600    0.22494806390381
H         3.70125911276347   -2.40256182178954   -0.47975082117233
H         4.77785491532834   -1.46738793436104    0.53240414933030
H         5.58295626741761   -0.93045961174207   -4.39803192327418
H         7.19094447270845   -1.11321090691678   -4.94260040213404
H         9.51375068829496   -2.29533377202355   -1.10813155249572
