32
 energy: -49.224324155306 gnorm: 0.283411653876 xtb: 6.4.1 (79825abcba525fcdf90b791dcacef51065a7a4e7)
C         2.15892898503167    0.24468089055714    1.87583872235527
C         3.34526826164991    0.35624435524092    0.88217429996009
C         3.62836843198065    1.87453851680229    0.63807516418261
C         4.52420632436821    2.27954342582846   -0.60400819099643
C         4.50674536104104    0.81050004336684   -1.32346945105040
O         3.04412750576981    0.70965510479069   -1.42195870839197
C         3.00733229513569   -0.34784012223791   -0.42440036087145
C         3.95352403783414   -1.40996545743268   -1.03362394169613
C         4.82443585575771   -0.66572739677757   -2.09095090472152
C         4.22849384212659   -0.50941738850322   -3.48048698746398
N         3.84125881043237   -0.51174496827526   -4.68052188147077
C         6.22588139590955   -1.11705766397262   -2.07051232469130
C         6.66050769379335   -2.42114863931212   -2.21706369316170
N         5.89086385419405   -3.48105485270625   -2.51943402041429
N         8.00593519393029   -2.52964956077480   -2.16666820571916
C         8.59959940196100   -1.40516035515012   -1.84137230068374
S         7.54143219525183   -0.06748892591425   -1.67544157156672
H         2.30478852125373    0.94623308787035    2.70687876136336
H         2.09700712663270   -0.71216353228621    2.41000612423850
H         1.18919983537711    0.37883546595725    1.37701514512838
H         4.19994187714063   -0.15433956750032    1.32601444310311
H         4.10177680067021    2.26580839043119    1.54379527018047
H         2.66439672250383    2.38603412372521    0.46318356876497
H         5.47303846430101    2.66910809669578   -0.21454042839417
H         4.06071742336018    2.97876229195862   -1.31851890988793
H         4.96896922189599    0.44480673797815   -0.38504907409981
H         1.97184684555695   -0.69309126491421   -0.30342255356348
H         3.44322426055848   -2.29100276330183   -1.43549236237321
H         4.65211853022672   -1.82209584080471   -0.29477219436361
H         4.95300361258783   -3.21126443898153   -2.80387754083470
H         6.43059621617357   -4.27078361744073   -2.86192415548101
H         9.66459778883379   -1.28501656668081   -1.69394345659096
