32
 energy: -49.230999750964 gnorm: 0.285107597865 xtb: 6.4.1 (79825abcba525fcdf90b791dcacef51065a7a4e7)
C         2.46235598944055    1.30447845283312    1.91639517823862
C         3.47980389139566    1.01775478593694    0.78069910303435
C         3.55163095358968    2.28026202384630   -0.13900932987997
C         4.14826051937557    2.15727636843237   -1.60127922905660
C         4.29338618994171    0.53042112504371   -1.51018359206382
O         2.87910495629623    0.19077713537893   -1.30144600166573
C         3.13972834002464   -0.27440774000881    0.05149567691840
C         4.05846247461587   -1.45318540405616   -0.34969408257829
C         4.77067628137378   -1.08519927081722   -1.68672650672879
C         4.00446917259566   -1.71199431441900   -2.84017564099892
N         3.36015772020301   -2.02186505425987   -3.87886858454552
C         6.19839384536517   -1.39886372107428   -1.86393695875795
C         7.05895789590802   -1.28747650949909   -2.94006567258800
N         6.73774342188797   -0.95196788254286   -4.20158692210208
N         8.34232403502658   -1.60734199491935   -2.66594026134657
C         8.49337845194477   -2.06770228220173   -1.44611176452016
S         7.04989731964250   -2.08017220809477   -0.52262791632719
H         2.78301989619283    2.18630165815362    2.48528930693649
H         2.43114187597328    0.47291759996885    2.63211342340451
H         1.44636919975179    1.49399549403564    1.54349952374177
H         4.43078105447321    0.87555605452155    1.29409851824775
H         4.02583644253342    3.09772505425164    0.41273323336473
H         2.52959399575810    2.65266567348721   -0.33448889708063
H         5.12201269152839    2.64053159806314   -1.74960082886586
H         3.50612229607324    2.46078403935774   -2.44377323265731
H         4.96705131841535    0.55829003669063   -0.63074404809469
H         2.24702203816518   -0.67620456073943    0.54918922975296
H         3.34581202274813   -2.28105755720668   -0.41960731010879
H         4.72546362521539   -1.74976070568081    0.46941529608865
H         5.78920058132417   -0.71322559890493   -4.47825534225843
H         7.49274339118054   -0.65904126280925   -4.81514301334915
H         9.48597028890399   -2.28524523423170   -1.07486000668195
