32
 energy: -49.228506774733 gnorm: 0.281684495218 xtb: 6.4.1 (79825abcba525fcdf90b791dcacef51065a7a4e7)
C         2.66883988740991    1.26981939206713    1.89140932955020
C         3.59620098485663    0.91425300870911    0.69944028104954
C         3.61550063733464    2.22571439345901   -0.15181985213264
C         4.19645063257650    2.11724920840929   -1.62153341974132
C         4.30827383148657    0.48542067333096   -1.64700985909141
O         2.89066772807041    0.15888293609165   -1.43991839718687
C         3.08386688118076   -0.29408053090286   -0.07160889819300
C         4.04791738919793   -1.47207890244467   -0.34994119872536
C         4.70331628240315   -1.15967501375287   -1.72949695478984
C         3.89453969558189   -1.61598668315517   -2.93284657920418
N         3.27914390759906   -2.03557380536846   -3.95033112624308
C         6.12960139016473   -1.52123954119055   -1.78560598175763
C         6.97454408765422   -1.27967979060620   -2.85272889619886
N         6.66160578867249   -0.69932158470144   -4.02423843746373
N         8.27534458051590   -1.55590532213862   -2.61586428261079
C         8.46429441514305   -1.97707388621483   -1.38718792480695
S         7.05918478003598   -1.99226458880086   -0.40634550521820
H         2.96729128140658    2.19653141015231    2.39758087873884
H         2.69145665116606    0.51355969541350    2.68656977414241
H         1.60195585511146    1.36063153543136    1.64501807323797
H         4.49607518094654    0.57646846901658    1.21352688811992
H         4.17067240708216    2.99250750386306    0.39713291384221
H         2.56355308936467    2.53902466933845   -0.28104566046329
H         5.14488414748057    2.62857136995473   -1.82829830229154
H         3.47281788083746    2.43618818944669   -2.38892387885052
H         4.91095961656422    0.46813647546500   -0.71723225103893
H         2.12483560850957   -0.65755123347105    0.32108966879258
H         3.42990128951143   -2.36640706956986   -0.22201915552431
H         4.85042997399115   -1.44983170622176    0.39789984961465
H         5.71443034386486   -0.59392051783031   -4.37782874058216
H         7.35636142422691   -0.86464357919502   -4.74691767554933
H         9.42505992089282   -2.34192303120300   -1.04924399108844
