32
 energy: -49.227835509751 gnorm: 0.281558616727 xtb: 6.4.1 (79825abcba525fcdf90b791dcacef51065a7a4e7)
C         2.64468618939910    0.77921310104740    2.09540222703381
C         3.56286685097204    0.61709530000645    0.85528998945532
C         3.77416244488681    2.04956905261058    0.26510325808455
C         4.58839492433799    2.16322224161711   -1.08894031345682
C         4.41671829876493    0.58159310062603   -1.46972143611940
O         2.95342516472913    0.63145825659443   -1.34559450315276
C         2.96148789964804   -0.28298350050759   -0.21488500668198
C         3.77222522928095   -1.46668971954719   -0.79461509883378
C         4.63677958874319   -1.00915767652608   -2.00850479008793
C         3.98855883251026   -1.25534088599026   -3.36112961008657
N         3.24121086568587   -1.51547096658946   -4.34288492167541
C         6.07743778439797   -1.30295647116506   -1.92880163884171
C         6.91904261067730   -1.91550021682576   -2.83848404173224
N         6.59193797400574   -2.54170810320913   -3.98218281287658
N         8.23845361075358   -1.90814539344111   -2.54936843365988
C         8.42959643544374   -1.37391236051554   -1.36581865389989
S         7.02081394964149   -0.81857644015422   -0.56360320891718
H         3.15132478600948    1.25877863029860    2.94240415843391
H         2.19305373191304   -0.19532197118556    2.32130020384699
H         1.81517332871178    1.37957603488783    1.69706845092363
H         4.50972915000018    0.25049832456500    1.25179402219766
H         4.34262458216316    2.59474312160250    1.02482198386106
H         2.78857969322605    2.51198990216468    0.07470924289186
H         5.66007268284509    2.35424000770777   -0.95201988006836
H         4.11498259176076    2.89598516971698   -1.76213701844089
H         4.97569341106859    0.33598018199349   -0.54493150812522
H         1.94568738738501   -0.62262889496950    0.02771429831024
H         3.00174667701771   -2.17036675833955   -1.12526938071363
H         4.32731744298623   -1.92252426232794    0.03476727425418
H         5.66385243544298   -2.39126906791197   -4.36857916988462
H         7.33408480291278   -2.72875545327644   -4.65039940077153
H         9.39322246724434   -1.22292743055892   -0.89782316172821
