32
 energy: -49.229730217217 gnorm: 0.273154578565 xtb: 6.4.1 (79825abcba525fcdf90b791dcacef51065a7a4e7)
C         2.42763615573229    1.02897219825223    1.97150648673902
C         3.47580097546625    0.88160551333293    0.83711244416753
C         3.46585706086858    2.23065927044281    0.04660479836693
C         4.22719448786338    2.28237195340024   -1.34156546839139
C         4.39146840781359    0.66332911437947   -1.50809539430810
O         2.95519357691210    0.36303004338766   -1.43027565708300
C         3.04502688241314   -0.23238044027172   -0.10657288243746
C         4.10347791468252   -1.33161684153063   -0.36328900996596
C         4.75854008135942   -0.97502837200225   -1.73225074561761
C         3.98470254473251   -1.40975001179164   -2.96618057431654
N         3.58389275272919   -1.69515721968681   -4.12718633998479
C         6.16910839247795   -1.38494642641342   -1.83438105436639
C         6.93046571621594   -1.64340755439986   -2.95890916856049
N         6.56092851091958   -1.48440900942488   -4.24161816109016
N         8.22255828236364   -1.97458325396690   -2.74605528417731
C         8.47421144622721   -2.11057729125785   -1.46507640015415
S         7.19410957363758   -1.58119092091759   -0.45626275862390
H         2.64093655129785    1.76018255686884    2.76138773683827
H         2.20539781503581    0.07592846224398    2.46853579890003
H         1.49014274972274    1.28750858956399    1.46017285417405
H         4.43709467555249    0.65755781928997    1.29957764092397
H         4.01665308994844    2.94254940787113    0.66899750069109
H         2.40917892551805    2.49503408739762   -0.14046085246768
H         5.18991252049116    2.80631592275005   -1.29272991575727
H         3.59840786839661    2.68688340169408   -2.15104210505042
H         4.96207195471301    0.58351015102094   -0.56149314346648
H         2.10195869169460   -0.68555948046269    0.22706651280297
H         3.62555243687221   -2.31162657578965   -0.45972029066181
H         4.86938763934839   -1.45296017127652    0.41288475538476
H         5.66349987987970   -1.13021644522323   -4.56169048504635
H         7.10626786138208   -1.88288659432504   -5.00063241757442
H         9.42497761823645   -2.40410618173728   -1.04048738062690
