32
 energy: -49.230968216225 gnorm: 0.275412233997 xtb: 6.4.1 (79825abcba525fcdf90b791dcacef51065a7a4e7)
C         2.45845229201470    1.06965396667369    1.95121417154537
C         3.52272284014050    0.80043027609541    0.85482780048094
C         3.97049621145013    2.13980183356196    0.18361241544607
C         4.60971164128087    2.14808505326064   -1.26575316656954
C         4.39421766856701    0.54778645257182   -1.52771612682316
O         2.93655795449744    0.47239058685001   -1.35841035097787
C         2.97525434228642   -0.25255750452336   -0.09836052835225
C         3.83198407667536   -1.45604956510385   -0.55897255305432
C         4.59053648918004   -1.09880871435531   -1.87323859047289
C         3.85770175488249   -1.64058694197613   -3.08971704845581
N         3.50772452133878   -2.31760313246699   -4.09430908198084
C         6.03293704610582   -1.39482153951626   -1.87807710211468
C         6.87828484613715   -1.52690816897585   -2.96388133208281
N         6.57725803142739   -1.43754566526010   -4.27100712622117
N         8.19413937623033   -1.65987279345573   -2.68940986961813
C         8.43438223729672   -1.55226275501972   -1.40355060785402
S         7.01634560547755   -1.38276456491749   -0.45641905910478
H         2.79841431059068    1.73697493226272    2.75320331787825
H         2.19244180872043    0.15508496514401    2.49667025920987
H         1.51958505902291    1.52036762884716    1.60109626533630
H         4.33359322197698    0.35607872708203    1.43206079391799
H         4.69718789339608    2.65493315577115    0.81929742265277
H         3.10671953186817    2.81517646029328    0.04499335377898
H         5.66555893759712    2.44596951187650   -1.27915245049092
H         4.00190324689215    2.75609685565544   -1.95506090176323
H         5.00948576210637    0.32114638396770   -0.63435463778807
H         1.99362695458236   -0.68469359186528    0.13771185979085
H         3.09919291072006   -2.23051228174674   -0.80667285651430
H         4.56295099181388   -1.79880352441653    0.18399091461665
H         5.60701653499199   -1.64245779232834   -4.49443334602876
H         7.23062757462847   -1.76206185466365   -4.97817013257203
H         9.42186467678328   -1.68276124120250   -0.98136589047405
