32
 energy: -49.226362798789 gnorm: 0.287335166806 xtb: 6.4.1 (79825abcba525fcdf90b791dcacef51065a7a4e7)
C         2.51690021522764    0.85001906946862    2.01271145534005
C         3.45600747454021    0.78313179467521    0.77949617854028
C         3.53233994914330    2.16067747509465    0.04363715013956
C         4.34787899187771    2.29333688710448   -1.30788906938614
C         4.40288086511613    0.66718722408776   -1.47709285061019
O         2.95413183048116    0.42432831944922   -1.44150335461521
C         2.97463588501094   -0.29701480037413   -0.17895973608071
C         3.96606049067716   -1.41688286225028   -0.57584156800590
C         4.82392832011632   -0.94370153277156   -1.78847515470482
C         4.03262904674431   -1.24829558471024   -3.05000524839225
N         3.15352486623149   -1.50897274385198   -3.91560527554102
C         6.23476633384314   -1.35404941661037   -1.88500004125356
C         6.96818035443283   -1.76694975467958   -2.98165302379274
N         6.57109381000008   -1.96787580300888   -4.25016854427132
N         8.22123951685229   -2.11861855102499   -2.62018503720143
C         8.50557848795759   -1.82576806127230   -1.37273943441555
S         7.18759750740182   -1.24031747733161   -0.44711021821037
H         2.75373039678126    1.66429042060211    2.70909616809239
H         2.62144386870600   -0.07852702799159    2.58855270869176
H         1.47539957325333    1.03703608433042    1.71691070472716
H         4.43157746057381    0.63949503281412    1.24402678785856
H         3.87741553052239    2.81349749810393    0.85127900750195
H         2.46507338527644    2.37733550804567   -0.14466490048729
H         5.36354223515061    2.70819606753938   -1.30094334092689
H         3.80030885506199    2.79145993727159   -2.12415797179231
H         4.93527543482715    0.64088886209428   -0.50555813159970
H         1.97105931363079   -0.69034919367837    0.03124544427578
H         3.49388150121716   -2.32372230096477   -0.96676364120373
H         4.61871380571288   -1.71625447996664    0.25374140373782
H         5.72894401818784   -1.44095928876334   -4.46562046723940
H         7.31808064406504   -2.12367225570057   -4.92100397027367
H         9.49375770334259   -2.01005749147305   -0.97282619030782
