32
 energy: -49.230417880461 gnorm: 0.277517572208 xtb: 6.4.1 (79825abcba525fcdf90b791dcacef51065a7a4e7)
C         2.19778780006273    0.98674006244646    1.84811628213419
C         3.38790354354719    0.80531511130627    0.86937945523951
C         3.67084280363899    2.18390241608270    0.18791802835605
C         4.44721630863976    2.29223059027339   -1.18861194174195
C         4.47614262256933    0.66818306380903   -1.38264998698815
O         3.03168905258106    0.39893780176027   -1.36917011389590
C         3.07332875755201   -0.32025452033778   -0.10591984520808
C         4.07978589197376   -1.44666149732890   -0.44176770063776
C         4.76022976503795   -0.95920663600648   -1.75694901911390
C         3.95498938502352   -1.23478747008003   -3.01632719544693
N         3.37446085694628   -1.54870499705873   -4.09079569806463
C         6.17409978010638   -1.32387537159872   -1.94709282570362
C         6.95051757884190   -1.79292192623342   -2.99026171566227
N         6.50077470884106   -2.02512708730843   -4.23565031204402
N         8.24823605643720   -2.08809598956398   -2.75942337239005
C         8.51755310666378   -1.77225324121397   -1.51425580135048
S         7.19607213133366   -1.25317491790719   -0.55464055380219
H         2.22225530709165    1.92574112760987    2.41535201548262
H         2.25233163918363    0.13275413421056    2.53546872745156
H         1.25270764052110    0.88446723517820    1.29715276583470
H         4.24979151974062    0.56412427039152    1.49157966392481
H         4.10078282146179    2.86760311940501    0.92632268580428
H         2.63774375482770    2.53645066083820    0.01508176398049
H         5.41900528978640    2.78025422835504   -1.04305332656933
H         3.83327743413527    2.72619988913757   -1.99421994761815
H         4.94778197221832    0.44615776294085   -0.40475613603395
H         2.15000405531747   -0.87775171799085    0.10079849063283
H         3.50022311301263   -2.36030103824760   -0.60760076459187
H         4.81959475499281   -1.62009372300008    0.34968143326539
H         5.52731296035100   -1.83935834246643   -4.46178967718056
H         7.15291214881239   -2.25728509597451   -4.97935822015208
H         9.49674188350723   -1.73761049272985   -1.05558317450430
