32
 energy: -49.229462170592 gnorm: 0.286735093206 xtb: 6.4.1 (79825abcba525fcdf90b791dcacef51065a7a4e7)
C         2.47812439638937    1.09472418071876    1.90737043260266
C         3.51730229627760    0.87159218120705    0.77708831152464
C         3.64825352787979    2.24122633911289    0.03418771131462
C         4.26274175945047    2.19044776568912   -1.42497345746866
C         4.33409192544951    0.55720779462489   -1.48374585114579
O         2.89173312767867    0.35120742178965   -1.29325761269298
C         3.07057405705285   -0.34121624079232   -0.02702773845929
C         4.01951101692739   -1.48845853345729   -0.44880514210966
C         4.73393980077295   -1.06409439150450   -1.76782924288024
C         3.98198978005090   -1.57299617066401   -2.98683718704756
N         3.35635842082849   -2.07506403644714   -3.95974694220859
C         6.17595198295554   -1.33801808496938   -1.88501721530266
C         7.00077781991417   -1.45622476154718   -2.98806757982620
N         6.59581415972736   -1.35455740070807   -4.26589730819108
N         8.28381075458185   -1.74871420473644   -2.68349620292874
C         8.50763026406428   -1.81803936998198   -1.39205149278941
S         7.10082429653497   -1.57566996825471   -0.44401682148808
H         2.72255213762030    1.96408749760123    2.53070063304169
H         2.40955223423647    0.17931934295604    2.50907818646684
H         1.50544761228195    1.17940908618711    1.40346034562537
H         4.41955990954927    0.59882975062762    1.32452676368423
H         4.18646680367322    2.92291994522088    0.69988794762705
H         2.64956960877317    2.70839065816927   -0.04225972651760
H         5.17676482101584    2.78100373099612   -1.56473644534978
H         3.51325104924869    2.49500162577441   -2.17314801764044
H         4.91715395378989    0.48902337043755   -0.54384966197068
H         2.05105990881745   -0.66011416472174    0.22784303638888
H         3.50707697390517   -2.43260959389651   -0.65885503062544
H         4.85473885126933   -1.71667436683245    0.22506400015807
H         5.62418107106482   -1.15159641715067   -4.48501552461038
H         7.37965857372134   -1.27544741372567   -4.90746693050253
H         9.45319898710308   -2.19613277466499   -1.02689875069163
