32
 energy: -49.226392512150 gnorm: 0.280535181827 xtb: 6.4.1 (79825abcba525fcdf90b791dcacef51065a7a4e7)
C         2.25917873578493    0.90963298277540    1.95657302981138
C         3.29773541661888    0.82626199842305    0.80693588304097
C         3.33457668990402    2.18347155059573    0.03132502153744
C         4.38143808497530    2.25951357074807   -1.15510845691806
C         4.50256288266666    0.63890633672982   -1.34213473693704
O         3.06358835109727    0.36132845079626   -1.44901620584595
C         3.02234984847244   -0.31480269145784   -0.16219113395954
C         4.04912358510868   -1.43626153171483   -0.44960751726843
C         4.85687429449035   -0.97798823923208   -1.70174264460817
C         4.12433391242455   -1.28400514133589   -2.99794035387559
N         3.27861403591067   -1.38415314038975   -3.92786960882146
C         6.27746143564526   -1.33984501972791   -1.84015580391179
C         6.92487865562329   -1.78789454746350   -2.97643621022915
N         6.36658756833023   -2.07262193527924   -4.16573096493541
N         8.23542663347414   -2.07152723641393   -2.81363629795384
C         8.62876406123260   -1.79938328007703   -1.59136221728406
S         7.39113511474846   -1.29497156384304   -0.51876764877058
H         2.71726365607327    1.49507259872147    2.76372648376403
H         1.98120507410381   -0.09777253025292    2.29211014421876
H         1.37419530231371    1.40948031564745    1.53925540327336
H         4.23754563954965    0.74036963896392    1.35240471908170
H         3.64845799162438    2.99636669838561    0.69330426289069
H         2.28797497267660    2.39196720559682   -0.25609573200768
H         5.29199416417100    2.84225117872325   -0.96793819166257
H         3.88348021518996    2.69574990850981   -2.03601161166208
H         4.94022388884892    0.52396140759876   -0.33057366688813
H         1.99310029318922   -0.69039586743526   -0.08709641379171
H         3.50333464923292   -2.36860452239166   -0.62562402937694
H         4.78630799112824   -1.59931014133462    0.34648413886443
H         5.43928602789145   -1.76269645387884   -4.44382242723705
H         7.04025184625029   -1.93426494075040   -4.91360516632064
H         9.69039041069825   -1.82628042011840   -1.38492240244848
