32
 energy: -49.229873635601 gnorm: 0.283303358023 xtb: 6.4.1 (79825abcba525fcdf90b791dcacef51065a7a4e7)
C         2.62146633322400    1.39756082669993    1.82563901097920
C         3.58537956768396    0.99927093075637    0.67696468579817
C         3.55033164914673    2.20907912398026   -0.31302674591511
C         4.21785042969139    2.01452594384657   -1.73636553455649
C         4.30708807643039    0.38557288291107   -1.61567410823232
O         2.87972433206089    0.11255034977855   -1.39839026986164
C         3.09966291682204   -0.26808837753864   -0.01220345754332
C         4.03847242642907   -1.47920198875303   -0.22757043801823
C         4.69997125679720   -1.26209207452796   -1.62241830117320
C         3.94756580661104   -1.85767422205530   -2.80121352083623
N         3.45720079708377   -2.37960302015323   -3.83908279000091
C         6.15047667665344   -1.48415915884440   -1.74442888817557
C         6.95243968103220   -0.96431091305570   -2.74325006186832
N         6.51608560197604   -0.20138871387679   -3.76046462699697
N         8.27096388005496   -1.20846646175069   -2.58086374138594
C         8.50321983236392   -1.89623282850527   -1.48735325264596
S         7.10679235143810   -2.39236182796112   -0.62685223390612
H         2.96011556886365    2.31283938065915    2.32729616489400
H         2.58012603600421    0.51515218250500    2.47707307839234
H         1.58640276445665    1.57205995434506    1.50099998379915
H         4.54642590578916    0.94110895741992    1.18800687938729
H         4.13055099620292    2.95784805990192    0.23490308433304
H         2.54290229256035    2.66026189982946   -0.36758383968481
H         5.23610117010674    2.40330975345651   -1.86182782255040
H         3.53933126235100    2.32817197914560   -2.54599041878578
H         4.94080860345481    0.49168687716333   -0.71281564348902
H         2.12866074190573   -0.62966131906010    0.35177989612494
H         3.47576725980679   -2.41808073788936   -0.22692650885824
H         4.72814682612861   -1.61943162684398    0.61413763699843
H         5.55055983747683   -0.14734362066810   -4.07369926390914
H         7.15724806131040   -0.21155403882149   -4.54855688330483
H         9.40937411773947   -2.38707896194562   -1.15819395662474
