32
 energy: -49.231464641656 gnorm: 0.283311948986 xtb: 6.4.1 (79825abcba525fcdf90b791dcacef51065a7a4e7)
C         2.14488913400504    0.85650889922762    1.85732202609147
C         3.36048032912460    0.78230160816895    0.89604808205144
C         3.63460028215552    2.16942281998721    0.22844022476433
C         4.53226880587095    2.20470806580804   -1.07627113897638
C         4.48599996737425    0.59006959742121   -1.33476618699301
O         3.02639169914742    0.42647658019050   -1.37837651435097
C         2.99064445823595   -0.29347979896230   -0.11538100840381
C         3.94940399286347   -1.45731154022951   -0.46297019992492
C         4.77299689516652   -1.03487274707516   -1.71738567568525
C         3.98766730903011   -1.08428137750356   -3.01784962921545
N         3.57153824439797   -1.16037546300792   -4.20574122598012
C         6.19649244936511   -1.33438986546885   -1.94567555236358
C         6.84874903684677   -2.06642177531702   -2.92021196339984
N         6.38046147075027   -2.69408063376388   -4.01288379903841
N         8.18755108183196   -2.11171049049272   -2.74687607379463
C         8.59739091197900   -1.54617972955618   -1.63559894263713
S         7.32751750477789   -0.81800946101865   -0.74464143224355
H         2.14600689857210    1.71738125962853    2.53774510475891
H         2.14597663327186   -0.07945535781205    2.43063704134249
H         1.18671012025858    0.95345422589344    1.32846323925487
H         4.14384663205096    0.49334565554730    1.59676107333791
H         4.15694270058528    2.71944090565757    1.01722093704405
H         2.63735498962267    2.62103203800731    0.07675890299173
H         5.52292085631008    2.61036296631541   -0.83589471320590
H         4.06403273785439    2.76230792399673   -1.90336964362377
H         4.91522768437355    0.41456525414106   -0.32829855865263
H         1.96575333868186   -0.66686078283415    0.01209028979296
H         3.35447218954231   -2.32258460518468   -0.77198395665960
H         4.60820312660231   -1.62991875267229    0.39724958067071
H         5.48774110798229   -2.43498863793643   -4.42422125458572
H         7.07450960827504   -3.03088873974396   -4.67404907007819
H         9.63090833694005   -1.58720430831405   -1.31850262681083
