32
 energy: -49.233995067949 gnorm: 0.279039730261 xtb: 6.4.1 (79825abcba525fcdf90b791dcacef51065a7a4e7)
C         2.43796394605443    0.93943762385026    1.99763646641510
C         3.52099995017576    0.77026819352508    0.89962417721605
C         3.63004120039302    2.13277264792794    0.14025676184394
C         4.33636596861760    2.23420313680424   -1.27400726723591
C         4.36961416500230    0.61700653416371   -1.51811288615788
O         2.93513147573652    0.38472588812862   -1.30033790699750
C         3.09724877600933   -0.34089190030503   -0.05055012216762
C         4.01354281306220   -1.47048233613416   -0.57872916004758
C         4.73513905912446   -0.99751514216173   -1.87715855184336
C         3.96907759119186   -1.28750498931288   -3.15756706026313
N         3.18301776659900   -1.60623785484415   -4.09060481412208
C         6.16188494999788   -1.36039718820624   -1.90680857884403
C         6.95416334927842   -1.71582103905277   -2.98244764601861
N         6.67745421303213   -1.87672005984908   -4.28809851220233
N         8.24790292420083   -1.94438234771694   -2.66862452177477
C         8.50589701244733   -1.62477714942623   -1.42202027041847
S         7.13000114601185   -1.22775476301994   -0.48079793393208
H         2.66717973566038    1.81228175341106    2.62188103670766
H         2.35086554178320    0.05223111685269    2.63794800086608
H         1.44888713804820    1.06374325224807    1.53560593323890
H         4.45245691536777    0.42557281111548    1.34876782750869
H         4.12587151194365    2.87345433728381    0.77514214140442
H         2.62364449294810    2.56380911350375   -0.01083762970420
H         5.30381342249834    2.75165588857957   -1.26997305292483
H         3.66795893817647    2.79465665004886   -1.94734109761556
H         5.02202348192109    0.52659783840110   -0.62693184540260
H         2.11495580342418   -0.77155219228521    0.18545056989648
H         3.33489279655761   -2.30587107144344   -0.77795426757484
H         4.72837586926979   -1.74035917428762    0.20865118871554
H         5.71414911990182   -2.02073374103076   -4.57892521114051
H         7.39674761554688   -2.45548720092314   -4.71227728867304
H         9.45462588321786   -1.79617842765528   -0.93117763781188
