32
 energy: -49.227774718925 gnorm: 0.276119710410 xtb: 6.4.1 (79825abcba525fcdf90b791dcacef51065a7a4e7)
C         2.77006684191816    1.32112984356928    2.01182096985181
C         3.57082325637267    0.83809469568276    0.77380542923358
C         3.59457382545830    2.10695265201894   -0.13964005557515
C         4.29995968332993    2.08320131849165   -1.55780515018178
C         4.25077695960451    0.45026678764343   -1.64220738594953
O         2.82307669062682    0.23304955802526   -1.37089678629717
C         3.00285011240236   -0.31807580005620   -0.03721201993357
C         3.94897926829563   -1.47402629556218   -0.44114330247489
C         4.68434239991421   -1.18101249756602   -1.78416302469017
C         3.96766739650850   -1.75021197366609   -2.99774414744357
N         3.41662094272917   -1.88041821034146   -4.12443589180089
C         6.13387628817005   -1.43968879741096   -1.79438283740998
C         6.94558125454241   -1.39869630054632   -2.91263382379676
N         6.63260849999777   -0.92732212793206   -4.13207430497366
N         8.24417585414503   -1.58666644801713   -2.59199912240745
C         8.44422553346086   -1.88265173937146   -1.32902508180425
S         7.03219470592325   -1.79857191846448   -0.36170133891596
H         3.35450577458917    2.10383814369880    2.51169784163372
H         2.60909692526863    0.58692645197351    2.81166748290338
H         1.79258674984994    1.73966409473789    1.73512838819039
H         4.57095104265580    0.63973242229381    1.15923223503998
H         4.04686567166743    2.87847374773412    0.49101340982166
H         2.54450552972966    2.32357322206496   -0.40776015291118
H         5.33965671566420    2.43003101206969   -1.60747860425513
H         3.72686373151642    2.62631002427019   -2.32647186080403
H         4.89767012794749    0.45470195000875   -0.74247139318409
H         1.99700752452481   -0.59686055200097    0.30429031727795
H         3.31853292434881   -2.35879835766480   -0.57473459711808
H         4.63745285761160   -1.79601111391291    0.35013257269406
H         5.67439133732972   -1.04692608528943   -4.44955120036689
H         7.36493718229670   -1.10187258890490   -4.81435641359256
H         9.47071104128577   -1.91899256573563   -0.98932196679775
