32
 energy: -49.231853873401 gnorm: 0.280507554987 xtb: 6.4.1 (79825abcba525fcdf90b791dcacef51065a7a4e7)
C         2.47046508014728    1.26469694450571    1.84553116863669
C         3.52784550938349    0.94165804855324    0.75704195416538
C         3.64266184897348    2.20156785958227   -0.16186594788726
C         4.18716128596318    2.08215137012750   -1.64462878608731
C         4.36219386292306    0.45797938212799   -1.55833387493739
O         2.93476999740084    0.18368796538268   -1.34305229385954
C         3.11101535464093   -0.31774475885089    0.01056341912405
C         4.09784530389437   -1.46383853717799   -0.31681727225537
C         4.72222376606577   -1.18940560566387   -1.71865752861637
C         3.94887012429039   -1.85241555548809   -2.84681185747703
N         3.29647571321912   -2.23662081413137   -3.85518083333169
C         6.17301431979199   -1.41235410458561   -1.83556394904814
C         7.03920728389165   -1.10461087131685   -2.86805339931545
N         6.60116325366875   -0.53120738974687   -4.00229610886576
N         8.33521794316656   -1.44259959563123   -2.69310393964213
C         8.48447754001991   -1.87591724649403   -1.46319012866737
S         7.06969264906464   -2.08345140046181   -0.51877020843789
H         2.77212291182891    2.16912007249799    2.38876168556465
H         2.37349558771669    0.45732364707183    2.58273240004818
H         1.51275614543378    1.50077982882194    1.36153168182681
H         4.50962198214128    0.81888891490753    1.21442549245595
H         4.22536167293670    2.99062967268520    0.32329266384937
H         2.60255048160996    2.57289861884090   -0.12017549698685
H         5.15991110824181    2.58853025345576   -1.67728482865294
H         3.47514676473535    2.41916400286700   -2.41515610979235
H         4.96056571868672    0.47193312369062   -0.62571835484905
H         2.15156711080174   -0.75851786130558    0.31262672093797
H         3.52121377680586   -2.39230317736732   -0.25698148335392
H         4.77873637009495   -1.57254176873280    0.53662199369440
H         5.63615683587569   -0.72302675566751   -4.25772665325644
H         7.22988839868760   -0.59114714931203   -4.79815662154302
H         9.44112686552668   -2.28155292200558   -1.16207034006370
