32
 energy: -49.229918023990 gnorm: 0.282319382048 xtb: 6.4.1 (79825abcba525fcdf90b791dcacef51065a7a4e7)
C         2.63972066733758    1.33591896401579    1.84557381707149
C         3.56879239955376    1.11442497633019    0.62287908795873
C         3.42401558377820    2.27836867793520   -0.41115282063815
C         4.02266136625668    2.04497096420106   -1.85907350176512
C         4.33136115071642    0.44598890773085   -1.70422302048297
O         2.93983034573575    0.10764555523847   -1.37515367867857
C         3.13759801342332   -0.21875990607069    0.02809972919943
C         4.16844142003038   -1.35322453216929   -0.18378302496278
C         4.73627133064920   -1.19697144667315   -1.62720679279707
C         3.89997955667526   -1.97375121992530   -2.63100931716244
N         3.43633324195680   -2.68064414391076   -3.56662389466008
C         6.15881606675390   -1.53511893458175   -1.80095695411106
C         7.03918632155760   -0.82287575411420   -2.59385573571755
N         6.68884783445589    0.17461124807141   -3.42419498518184
N         8.34031165592923   -1.16584361305066   -2.47581662624505
C         8.43913437967019   -2.11600788417820   -1.57573189504658
S         6.99983843908159   -2.72976226372983   -0.87691256463306
H         2.86041106764777    2.28224127726565    2.35532656403650
H         2.79234431877824    0.49928519800355    2.53945445683509
H         1.61148201763488    1.47501971481392    1.48422454608952
H         4.57955126235345    1.09253897578628    1.03036470484381
H         3.87672808045767    3.19775831641354   -0.02734219592081
H         2.36484068930788    2.58094281541292   -0.50089532017011
H         4.92048963056858    2.61646684351045   -2.12557879390452
H         3.21403526693981    2.16393500365150   -2.59814449843153
H         4.97813603251303    0.61104202585856   -0.81965814731050
H         2.17214870546767   -0.52999549450880    0.44893715731707
H         3.76080420934609   -2.36902913579431   -0.19396858061969
H         5.00821575790069   -1.26845290156429    0.51720232263153
H         5.76890401703522    0.16209542842179   -3.85642587509825
H         7.41065541719350    0.58356152363863   -4.01074039875830
H         9.36013304380530   -2.64226522213998   -1.36311478516608
