32
 energy: -49.231295495073 gnorm: 0.280300201204 xtb: 6.4.1 (79825abcba525fcdf90b791dcacef51065a7a4e7)
C         2.43376786745532    1.17530699895404    1.78766274637434
C         3.58813220293743    0.80038669089563    0.82117735268889
C         3.88207938064031    2.12232930810658    0.03950604569483
C         4.51128290939367    2.15342064258667   -1.41392500599306
C         4.38816944271040    0.52434918486950   -1.49751390562630
O         2.93449845890466    0.46150078265945   -1.29254666127419
C         3.02799701129249   -0.30635731899765   -0.06111470768704
C         3.92739779216409   -1.51413662185397   -0.41733066330723
C         4.64826783596158   -1.13097212214926   -1.74543056185359
C         3.93957402197166   -1.67998488941344   -2.97291916982473
N         3.46259709789607   -2.02302434650455   -4.08865080279611
C         6.08475441747803   -1.44587766832548   -1.81964076131092
C         6.87484304462046   -1.39296657272939   -2.95277401504090
N         6.52394330308992   -1.11049426863564   -4.21936763611150
N         8.18712660831206   -1.58533561370660   -2.69705284697109
C         8.41849807791896   -1.78792652513124   -1.42106117061351
S         7.04215611647297   -1.70385909362302   -0.40359806594365
H         2.64796371014325    2.10153541272226    2.33565827850688
H         2.24009217363140    0.43706483944492    2.57646476162305
H         1.48884236099115    1.32564450223152    1.24755955453910
H         4.46068407564912    0.52993969274526    1.41587782770385
H         4.55331354105935    2.66210682999493    0.71450340750209
H         2.91833359735997    2.65125014846200   -0.07404171549909
H         5.55887665635704    2.47006928957219   -1.49144391155922
H         3.82548031941882    2.60379731143616   -2.14951335115977
H         4.88856516172591    0.40949487000415   -0.51546100273241
H         2.04810828009764   -0.69575317995403    0.24589186657584
H         3.33266334139666   -2.40669416279865   -0.63587768538037
H         4.66989061850174   -1.68112124344379    0.37299089068692
H         5.60233541612380   -1.24415587148518   -4.62686032179262
H         7.22653267900419   -1.37776254169161   -4.90290101061778
H         9.44439315880488   -1.84582711429497   -1.08256720659940
