32
 energy: -49.226987979672 gnorm: 0.279621344436 xtb: 6.4.1 (79825abcba525fcdf90b791dcacef51065a7a4e7)
C         2.28821566070201    0.77246297881063    1.88402170793390
C         3.48329703837558    0.67592143375635    0.89930017211970
C         3.70200445023650    2.13173684869899    0.37231269336973
C         4.34688507369202    2.31067344714074   -1.06345756843736
C         4.43706435084353    0.71389982446431   -1.40725918963478
O         3.00041648107872    0.40542891878965   -1.40418774660313
C         3.05782445507605   -0.33648867945643   -0.15477376208363
C         4.00223348538052   -1.45106203454777   -0.66502883389271
C         4.74927016013983   -0.87451251866014   -1.90593369105567
C         4.04788475090915   -1.11734541908008   -3.23238796206481
N         3.42480313768454   -1.43689515324914   -4.28105254736106
C         6.17648038887342   -1.23059653334648   -1.97257832297325
C         6.92179861892018   -1.92664939239392   -2.90587449991109
N         6.43878953812321   -2.52286251294505   -4.00969186721260
N         8.22909166587248   -2.10218923880923   -2.61491407729886
C         8.50097975421276   -1.63864618416651   -1.41744370302092
S         7.22491451928504   -0.76476856899770   -0.67946597515958
H         2.57049898434846    1.45893176751585    2.69220161620468
H         2.20330230246933   -0.16908408066342    2.44169476295465
H         1.34095061187241    1.09240396491954    1.42847398492322
H         4.37157988919198    0.44767655244956    1.48837984010523
H         4.25014446001030    2.62408337488525    1.18143192815042
H         2.68174091800918    2.54877677696012    0.29109504408177
H         5.35476266981896    2.74394493506226   -1.04979092039407
H         3.66504968202704    2.75980122129682   -1.80348411757481
H         4.96218902243352    0.44086824823138   -0.47039573603992
H         2.10383702548227   -0.84834984592199    0.02953638631646
H         3.31292158583733   -2.26429131821085   -0.91329898186318
H         4.67273121647431   -1.85839064257038    0.10198082510104
H         5.48131391878992   -2.42791117915028   -4.33756607266290
H         7.00442463114205   -3.18190432240667   -4.53695163964015
H         9.51802011228865   -1.56438865134437   -1.05618743963965
