32
 energy: -49.230170004776 gnorm: 0.287291462964 xtb: 6.4.1 (79825abcba525fcdf90b791dcacef51065a7a4e7)
C         2.07932910392105    1.21719211000956    1.74699170358923
C         3.28986031003495    0.96793274616357    0.80906833911984
C         3.49293348130161    2.29039753522505   -0.00012596567380
C         4.43785715446674    2.21476409567568   -1.26926914078776
C         4.51749629596083    0.58446349696429   -1.37787579118996
O         3.06381797713754    0.37038693742842   -1.38843032844317
C         3.06170217250587   -0.25100844168391   -0.07365429903502
C         4.07272253306239   -1.39149396375754   -0.34137246924102
C         4.89207148580843   -1.04922847977429   -1.62271537229907
C         3.99737754752638   -1.59072628067110   -2.72575351836618
N         3.11818072587536   -1.90411808265201   -3.57359706510609
C         6.26425883317127   -1.52823524488619   -1.85897952543543
C         6.96281133530564   -1.48401064428278   -3.05107817056718
N         6.53441497361205   -1.40653404059898   -4.32294867027834
N         8.27736533498747   -1.75171531317072   -2.89369548848865
C         8.64715193429766   -1.93042295441872   -1.64707925153162
S         7.35452444785869   -1.75204762013134   -0.53626328222923
H         2.25602905508613    2.03196596776098    2.46043316852286
H         1.82558313324545    0.34315732906203    2.36050336868485
H         1.15597190713457    1.40035822795440    1.18037128815559
H         4.15302354064596    0.73581325708629    1.43294876337023
H         3.89502142989928    3.01435439930345    0.71523984845161
H         2.51967402400629    2.65423830815877   -0.37674540591753
H         5.42221016376111    2.64775935883145   -1.05180085059070
H         3.94924118973728    2.62872823888531   -2.16600916727240
H         5.04840439283891    0.48675793812852   -0.41009197680946
H         2.05860314447673   -0.66283556516898    0.10028494044143
H         3.44867215773888   -2.26796884931660   -0.54257817168592
H         4.68243530480856   -1.60117998321105    0.54636044563212
H         5.53397897870807   -1.28116323084605   -4.45212604625755
H         7.14432485887080   -1.75109885521285   -5.05886106604960
H         9.67261637747697   -2.08328195107854   -1.33813239320312
