32
 energy: -49.226489114672 gnorm: 0.280401459724 xtb: 6.4.1 (79825abcba525fcdf90b791dcacef51065a7a4e7)
C         2.69631250564087    1.18058519413038    1.95879167196093
C         3.59611259896571    1.00377777952906    0.70726652216684
C         3.56831510928431    2.26524316573094   -0.21624830361493
C         4.23244687317668    2.12393601661327   -1.64743202892915
C         4.24513044814829    0.48819724919181   -1.66211748348847
O         2.83879965934863    0.21277711235758   -1.33731248604867
C         3.12467002259453   -0.26282204242662    0.00688105657877
C         4.03994069089291   -1.47054380554864   -0.30653585704341
C         4.68882183128604   -1.14635108189043   -1.68645264188445
C         3.95867801254570   -1.71037102503232   -2.89441031636995
N         3.44760067303970   -2.12474258321319   -3.97011301812131
C         6.14579701170951   -1.35040166255416   -1.74771467698390
C         6.90995751188668   -1.26751135856293   -2.89672229988001
N         6.59291407158784   -0.84574431053499   -4.13315937675372
N         8.20667464560370   -1.53241149523924   -2.62683360433768
C         8.42297806951595   -1.94006770154207   -1.39811075594414
S         7.03666431099690   -1.94489119102478   -0.39077436994620
H         3.14750287689074    1.93894976569950    2.61100978110483
H         2.51082999137792    0.24329186563902    2.49897481925843
H         1.73037586656618    1.51882523236012    1.55909538571825
H         4.61437549487038    0.92264812055956    1.08768163307243
H         4.11197574944030    3.00042949064488    0.38497601718316
H         2.51509808910680    2.56220141389126   -0.37118696626120
H         5.20637604825359    2.61745826766034   -1.75525573494605
H         3.63286421425780    2.53827292737648   -2.47391863379498
H         4.88940733893165    0.43102652584984   -0.76230967137410
H         2.16957821055358   -0.65770285682107    0.37827420607044
H         3.41614809579408   -2.36865970445629   -0.35554051039366
H         4.84722214015651   -1.53549979034891    0.43364317709702
H         5.72876503139515   -1.17801307350008   -4.55282676660225
H         7.45880751207825   -0.78068043785613   -4.66067931086012
H         9.38316779682740   -2.33150986742723   -1.08956565852254
