32
 energy: -49.233345394886 gnorm: 0.279936069706 xtb: 6.4.1 (79825abcba525fcdf90b791dcacef51065a7a4e7)
C         2.37333054444240    1.07286014123396    1.90595898011440
C         3.44452389355449    0.83098696203567    0.80993961705760
C         3.61693568314968    2.16720848690795    0.01638214199560
C         4.30675605615969    2.12419605004580   -1.40896811295723
C         4.39818950297359    0.49397100785064   -1.50908851367004
O         2.94444446531161    0.29711449546641   -1.42546011408474
C         3.01773431339282   -0.30808228999402   -0.10518054184561
C         4.00679314876323   -1.46101889814473   -0.40020970671115
C         4.77357807875122   -1.14425208319609   -1.72006486694667
C         3.99883824699891   -1.56701429959999   -2.95757871907885
N         3.30948395391311   -1.74668548458203   -3.99803489813729
C         6.22598818697625   -1.36634733186775   -1.81673404813830
C         6.95688476404948   -1.50680537790836   -2.98167710522702
N         6.55446248424702   -1.15629313342379   -4.21552398002758
N         8.23049305649277   -1.89466795233876   -2.75370373872782
C         8.50943435990070   -1.91934271546511   -1.47139585915412
S         7.22619009920139   -1.50563963017864   -0.41368624742843
H         2.76974835937191    1.78491723247717    2.64074170390374
H         2.29225000437467    0.13132545200909    2.46422303474098
H         1.44191297904846    1.41414322399693    1.43353521760369
H         4.36899125536355    0.59305511248347    1.33615776112756
H         4.15715693233062    2.91257525907587    0.60809650259823
H         2.57422108438927    2.52749592442203   -0.04991650095844
H         5.26520257354100    2.65562383708083   -1.35707413004563
H         3.74938148940808    2.53949371800893   -2.26402132097610
H         4.98984736476396    0.51569855604001   -0.57234725753970
H         2.00598222241467   -0.64953621506406    0.15139502196705
H         3.50653263239563   -2.42552173887756   -0.53289171154423
H         4.77365954193693   -1.59824034621063    0.37236639282681
H         5.57474526595400   -0.93024613784852   -4.36496875797402
H         7.02614921832948   -1.67154081027241   -4.95330002540700
H         9.46027679848171   -2.21128858091673   -1.04588719007657
