32
 energy: -49.227514984866 gnorm: 0.278976008720 xtb: 6.4.1 (79825abcba525fcdf90b791dcacef51065a7a4e7)
C         2.54528831595921    1.38106390483076    1.71883566156671
C         3.62722105346157    0.89544909394544    0.71842770620281
C         3.83135792466953    2.18734358509942   -0.13847603114914
C         4.47632607125194    2.00815274899228   -1.57417526857740
C         4.34591697993594    0.37753581156392   -1.58416146012544
O         2.90349605877507    0.22944453378156   -1.34622936084286
C         3.09131068813724   -0.32579118323921   -0.01536059810472
C         3.95784496017950   -1.56200691486438   -0.35511261268389
C         4.64842861802621   -1.28317158308463   -1.72466110188465
C         3.87559348392189   -1.90403060755717   -2.87689812711282
N         3.29960322801522   -2.08923401008132   -3.98323219261634
C         6.09196228719127   -1.56305868978103   -1.80237926703592
C         6.92092556620060   -1.23039161099756   -2.85745419512403
N         6.45314156747009   -0.58805719291390   -3.94178130075119
N         8.24923263651948   -1.27748864481732   -2.61689336364237
C         8.43199334798125   -1.70939146929964   -1.39101038866149
S         7.04463364155703   -2.06209417811112   -0.44896498480579
H         2.94504815364737    2.12928061645209    2.41485423948118
H         2.23548523818115    0.59770318950206    2.42246086155178
H         1.63193040533595    1.72597484508397    1.21484081504143
H         4.48332801323004    0.62897448198501    1.33828991442536
H         4.37859552786399    2.95645373746056    0.41518188337782
H         2.80200605386898    2.53849819577518   -0.33489763994782
H         5.51130263818362    2.35223788906999   -1.69315899137417
H         3.87155502804496    2.48196365236781   -2.36411815343414
H         5.01207061435673    0.34883549933917   -0.69904512622260
H         2.16889456643962   -0.60577368016050    0.51077854418867
H         3.28913185065986   -2.42824971105295   -0.37913386843772
H         4.78144071113888   -1.81091677995388    0.32571155057289
H         5.54333746785714   -0.84097932621349   -4.31803083282159
H         7.13811260592603   -0.36367077258914   -4.65784515840696
H         9.46064575545335   -1.90814642903395   -1.12126597035946
