32
 energy: -49.232427692238 gnorm: 0.277727776550 xtb: 6.4.1 (79825abcba525fcdf90b791dcacef51065a7a4e7)
C         2.44653784998189    1.12323861776951    1.97363772794812
C         3.41601843119437    0.87252986587261    0.78853486508505
C         3.50368762685925    2.24124797762349    0.03762068906782
C         4.24697967748931    2.24185930709540   -1.36125104273323
C         4.37216484945181    0.61724030260463   -1.50602540065492
O         2.93371459743066    0.33239254004334   -1.41198577067495
C         3.02484184609992   -0.29678069274490   -0.10408303347131
C         4.06346891180152   -1.38875996176632   -0.45533438826190
C         4.77688133961465   -1.00342512054960   -1.78682895774852
C         3.99047170794691   -1.50329161209890   -2.98769682734299
N         3.31474595744916   -1.86042102503940   -3.99063921974958
C         6.20405895165510   -1.36026167499979   -1.85005956463305
C         6.98393132822428   -1.63631152770920   -2.95759113107027
N         6.62153376698409   -1.42192325715372   -4.23426114540480
N         8.24115762761555   -2.07268428296726   -2.72640252349613
C         8.51781035265929   -2.04710468086003   -1.44361666896913
S         7.23075948357913   -1.48019042371079   -0.46447215329216
H         2.94990737748255    1.68701445874795    2.76915891333845
H         2.19751369302126    0.21623422228924    2.53936767713321
H         1.48387927879630    1.53190968153235    1.63677949052901
H         4.32975256205912    0.60369607971652    1.31860593410425
H         4.00314290142764    2.99650487305237    0.65216764344754
H         2.47655050413237    2.54142737451202   -0.23867253265847
H         5.19620082316552    2.79204573324637   -1.35972920881032
H         3.59512176219699    2.72243135353436   -2.10850355288808
H         4.94414046535872    0.54487494296619   -0.55965209000702
H         2.01013950632468   -0.63359253122337    0.14691705815704
H         3.55062728562726   -2.35492415998876   -0.49596738324390
H         4.77853240710640   -1.52119941303445    0.36620782921511
H         5.63107040795943   -1.41281277882964   -4.46268213784202
H         7.28716303868344   -1.58037996308756   -4.98533449844357
H         9.48459507418444   -2.27127177169829   -1.01295696933002
