32
 energy: -49.229569639672 gnorm: 0.284353210493 xtb: 6.4.1 (79825abcba525fcdf90b791dcacef51065a7a4e7)
C         2.81867012001415    1.45631123594874    1.92099123250145
C         3.57231820942843    0.95140220448636    0.66230235303025
C         3.55506102129047    2.17020674504728   -0.31706730991185
C         4.30286100563523    1.98146706875324   -1.70072119994359
C         4.29532665427887    0.34822014165951   -1.60871267931144
O         2.86149381523358    0.11904886202058   -1.38349114004812
C         3.06265198206688   -0.31542930222860   -0.01034263480803
C         3.95581186651492   -1.54651644988423   -0.29535538111562
C         4.63892603823334   -1.30905483630717   -1.67640027212121
C         3.89739601508965   -1.80498117551583   -2.90708322086417
N         3.36441938591107   -2.28984672884689   -3.94191723740358
C         6.08805312279739   -1.55921850514915   -1.75133481507703
C         6.89909463259703   -1.01685030155695   -2.73066060790557
N         6.47266468115965   -0.24411282018278   -3.74466994074846
N         8.23185583880765   -1.13194206937536   -2.54360775467018
C         8.47835292998341   -1.84217899615015   -1.46772054595583
S         7.09946461832049   -2.28289588886580   -0.55063203259929
H         3.24924454883803    2.35946683756071    2.37153940543168
H         2.76265234707485    0.64951113507685    2.66305321469290
H         1.80041156968765    1.61428479317237    1.53968962597512
H         4.58400364901369    0.73237713455439    1.00388337351602
H         4.04933939790465    3.00017018805308    0.19711755782643
H         2.48250914341937    2.32731771867970   -0.53248526194232
H         5.36248994690111    2.25869045271126   -1.76445433256132
H         3.79641486363221    2.37601784926953   -2.59631962344882
H         4.97525113997407    0.44113993835861   -0.73860699633942
H         2.08950568682657   -0.66897246993724    0.35579615555609
H         3.33242143194691   -2.44620439219322   -0.28659211829168
H         4.77703820913907   -1.61049242199097    0.42940802147939
H         5.61875615376078   -0.58403173338709   -4.17891892304374
H         7.23038491738203   -0.11904845148599   -4.40987741861949
H         9.47613523141908   -2.05371571339115   -1.10706273707264
