32
 energy: -49.223898250255 gnorm: 0.279698690219 xtb: 6.4.1 (79825abcba525fcdf90b791dcacef51065a7a4e7)
C         1.93875518307518    0.79356116121395    1.74049489292703
C         3.27435191581685    0.74622958173033    0.95235952344969
C         3.56925444627629    2.14626837384400    0.32158925328997
C         4.42716475424195    2.30969797118522   -1.00000305860332
C         4.53577049679246    0.70753587566558   -1.31193136564216
O         3.08634394813653    0.47199402559073   -1.25898280746122
C         3.05798271791258   -0.36225665567782   -0.06818721491591
C         4.14295012677995   -1.38210936651478   -0.48924372416538
C         4.83348775916756   -0.88796413832412   -1.79664430393994
C         3.91195563258075   -1.02281003616861   -2.99788756096339
N         3.34115062713195   -1.20890710051395   -4.10675620504191
C         6.22662387343124   -1.33278309943535   -1.96832482992876
C         6.89320076718832   -2.00784877199478   -2.97380589423758
N         6.32429764879925   -2.70086209338962   -3.97543577271536
N         8.21288874686954   -2.22223470344030   -2.78158305110694
C         8.65947734694461   -1.67272403849139   -1.67644629838809
S         7.43072125832711   -0.82191907833499   -0.83805194649767
H         2.04254148495132    1.56555804204342    2.51336438782693
H         1.79280084077933   -0.16462101898837    2.25557218741490
H         1.10959582587360    0.95860277570587    1.03874489380275
H         3.99768922741235    0.42951941091574    1.70378137915056
H         4.10436193823113    2.73776157793819    1.07081036228654
H         2.57023285856292    2.53901461441920    0.05860153260262
H         5.38969848849438    2.70593903836556   -0.65323219081364
H         3.96322635016791    2.92942549666422   -1.78419276621772
H         5.05484156318101    0.40105994631023   -0.38206415700048
H         2.10550267861856   -0.87610609480933    0.11837276739421
H         3.69414205971424   -2.35291495118753   -0.72213569083126
H         4.89668805311685   -1.55449354173242    0.28918447215726
H         5.48380231268173   -2.33935217860113   -4.41832964850619
H         7.06582661254450   -3.09588076918910   -4.54672998804703
H         9.70914874571239   -1.66037322235760   -1.41485736661191
