32
 energy: -49.223928732445 gnorm: 0.289645631346 xtb: 6.4.1 (79825abcba525fcdf90b791dcacef51065a7a4e7)
C         2.72106820617526    0.94520878820067    2.09386015757709
C         3.52919324281540    0.77750260406566    0.78007751513880
C         3.65841967274287    2.17107978146448    0.08280394066878
C         4.25424560534950    2.24240485246922   -1.38322121694009
C         4.28309533871156    0.62113321779311   -1.59923937571298
O         2.84933493964312    0.35327887845482   -1.42117759291460
C         3.00876317707977   -0.31724995745151   -0.14065175602321
C         3.89266292310868   -1.48876563216784   -0.63138048069302
C         4.72756180754257   -0.99382746076141   -1.85133870560142
C         3.94913056927239   -1.23780658980007   -3.13387886414209
N         3.29522593524321   -1.31818032443080   -4.20904812811842
C         6.14023889466259   -1.40882310607535   -1.86832195496240
C         6.95232588169494   -1.82725673551698   -2.90584719537275
N         6.63293409781467   -2.29918745365900   -4.12340660820354
N         8.24351869747520   -1.96310457704793   -2.53321628291248
C         8.50930818626186   -1.50355286627565   -1.33284185555574
S         7.08429792535187   -1.17666396227014   -0.43891507020507
H         3.35676772199472    1.47152943051212    2.81701349092777
H         2.40335378495173   -0.02733701078201    2.49126749894057
H         1.82211877405750    1.54236434966704    1.88772382129581
H         4.54158080786024    0.48851526941617    1.06241551022701
H         4.12807898652955    2.79976585069045    0.84550339913604
H         2.63746296857736    2.59426859232772    0.07894106105356
H         5.28661183968385    2.59000394169376   -1.25236617628549
H         3.66124456460018    2.75466520236419   -2.15794287695251
H         4.78416136094015    0.53917256946920   -0.61423653804652
H         2.01880805446493   -0.65344128049545    0.19554513338553
H         3.34005495450055   -2.39511435768817   -0.89837720758472
H         4.57141614055587   -1.76679777201508    0.18457284095712
H         5.79964414703985   -1.96850478183676   -4.60252417437528
H         7.39108812166389   -2.57894996041473   -4.73921295010708
H         9.46998608331005   -1.61534099294827   -0.84808134608424
