32
 energy: -49.234550653094 gnorm: 0.283080355708 xtb: 6.4.1 (79825abcba525fcdf90b791dcacef51065a7a4e7)
C         2.23177198683908    1.20520745829587    1.76110032764380
C         3.39732211104196    0.97670818446554    0.76285323356168
C         3.51580707305443    2.26738265652680   -0.11182840970892
C         4.38502095964474    2.14823410166257   -1.43076601632362
C         4.35240939651927    0.51338724518836   -1.47798989311092
O         2.91723116518326    0.21150566679363   -1.38715058354148
C         3.06378207772213   -0.28117698352721   -0.02679793212696
C         4.10822382614159   -1.40831154136679   -0.20914796913990
C         4.81778205003416   -1.11295162877826   -1.56546933179224
C         4.06273242447558   -1.63585943650170   -2.77660836040687
N         3.42580662231993   -2.04181195034686   -3.78634507272778
C         6.23593169608735   -1.44818736740052   -1.77673915633550
C         6.92033294778705   -1.34040343346295   -2.97298668571480
N         6.48272148024060   -0.80405909207947   -4.12538053861955
N         8.24532688051236   -1.58482728398737   -2.87740751987905
C         8.57139016928121   -1.96485892128225   -1.66415186671351
S         7.29122031239691   -2.00448271570096   -0.52563933271873
H         2.43390980399133    2.04634998770376    2.43615409172942
H         2.12145972194355    0.35337101997378    2.44442035970723
H         1.27607519897359    1.28135653843440    1.22440488102307
H         4.29736363370326    0.82104929559427    1.35770831812298
H         3.89416526829460    3.11789649884552    0.46350435335328
H         2.50943842328937    2.56890379972042   -0.45499516818078
H         5.40139999290350    2.55274182801354   -1.34665083157418
H         3.77359889102019    2.66042155558976   -2.19108280117149
H         4.93479912476940    0.54888417444293   -0.53587659334884
H         2.08128565776500   -0.68037265060949    0.25852241761905
H         3.61862779990022   -2.38729643921329   -0.20525865844944
H         4.84514798131170   -1.37338795781178    0.60295470431587
H         5.48504264791218   -0.90466285106137   -4.29209181108050
H         7.04190767281951   -1.12274500197067   -4.91153073583977
H         9.52068650184257   -2.34802372413360   -1.31427679527712
