32
 energy: -49.229852082061 gnorm: 0.274221085423 xtb: 6.4.1 (79825abcba525fcdf90b791dcacef51065a7a4e7)
C         2.66753541113533    1.07756899229135    1.95650288435923
C         3.58636822758835    0.88340954023725    0.72148683810380
C         3.58133653541707    2.25364634726460   -0.03175484411589
C         4.36724280404591    2.19869915831014   -1.40603928001600
C         4.30271991587222    0.57336522166685   -1.57966022734592
O         2.86580272724927    0.38328414308679   -1.33829122393236
C         3.03530135459038   -0.29784199028667   -0.06467035902072
C         3.94208847712312   -1.46555419235236   -0.52153767640200
C         4.69910178321329   -1.05565946234623   -1.82124347952910
C         4.00920661849640   -1.68586462652239   -3.02010808623141
N         3.42524023182119   -2.18149550059311   -4.02179338235997
C         6.14761496596986   -1.32009291288213   -1.81411087113269
C         6.95792675542037   -1.42898431265811   -2.92881624795204
N         6.56646570223217   -1.17431656789817   -4.18940469271394
N         8.22009319353463   -1.83766833310615   -2.67504356451266
C         8.40403851732096   -1.98059752725955   -1.38335244115262
S         7.08438205869543   -1.54823171597622   -0.37926960845484
H         3.00353439712674    1.89373660879160    2.60846387992796
H         2.57733488738279    0.16993668678328    2.56706642994720
H         1.64945964885075    1.32516588106517    1.62572416934206
H         4.60392372862518    0.70332230051808    1.06833895773983
H         4.00444888284615    3.02258170539389    0.62188945092053
H         2.53026176257409    2.53578680595309   -0.22435511981941
H         5.37200574525836    2.63286600265626   -1.33068157474105
H         3.80812944277210    2.81424823675083   -2.12905112268020
H         4.90019657144400    0.38436301499130   -0.66570447836441
H         2.13777998816320   -0.72864413121765    0.39893401070170
H         3.28746329612241   -2.30801057206081   -0.76620879059535
H         4.64554077676868   -1.78355914012030    0.25808745043897
H         5.59959221005581   -1.13643478540111   -4.50084880336814
H         7.31490967870209   -1.28846018387270   -4.86696272459307
H         9.34716208832612   -2.27420627595315   -0.94210059453300
