32
 energy: -49.227883765260 gnorm: 0.283443004790 xtb: 6.4.1 (79825abcba525fcdf90b791dcacef51065a7a4e7)
C         2.16496261809339    0.72603839904556    1.89767236685974
C         3.36604834054214    0.63777485197881    0.91950116265777
C         3.67263354511484    2.08214143443685    0.40495481489289
C         4.55743206843058    2.27808029400114   -0.89430078144070
C         4.46036705456715    0.72291257647999   -1.39234657009090
O         3.00109838357961    0.55712695266833   -1.34575365378668
C         2.96940166733765   -0.32546276412942   -0.19041672878289
C         3.94518045049903   -1.43762653735953   -0.64372669160964
C         4.76161858534355   -0.88015022574522   -1.84911747275677
C         4.03573560052549   -1.13446761765856   -3.16015019976620
N         3.50930771132781   -1.24449637670671   -4.30067968091637
C         6.16495789126120   -1.30262460273998   -1.99166767281093
C         6.87825697983710   -2.08951291521032   -2.87656415822028
N         6.41307753345902   -2.81860295149159   -3.90574657072097
N         8.21725597547016   -2.06406888186279   -2.70071875998340
C         8.59733313827981   -1.31972372402287   -1.68868011070836
S         7.26734150364622   -0.69569600072694   -0.80645148517287
H         2.24238562098975    1.69101557504396    2.41429869697988
H         2.11807146314194   -0.16258404737294    2.54022333523500
H         1.17914897436368    0.80399191452869    1.41882819140927
H         4.19738997139256    0.22877504709411    1.49373740023287
H         4.12940738684944    2.58230224715695    1.26445078760043
H         2.71203194589881    2.58696506769980    0.19554146776052
H         5.57939006417528    2.52959549665418   -0.58434890678936
H         4.12160066803398    2.95344142180296   -1.64808648483535
H         4.97269650834752    0.33907661679922   -0.48780039242544
H         1.93512516917351   -0.66721256356727   -0.05061938382617
H         3.47948143329228   -2.35434115332239   -1.01907928685135
H         4.65778636682843   -1.78593870214936    0.11433601474251
H         5.41547982469373   -3.01038866470444   -3.94171691330292
H         7.04086737770870   -3.47629183807721   -4.35918595455453
H         9.62575244937109   -1.17208753074783   -1.38710320078402
