32
 energy: -49.228149657159 gnorm: 0.290231452572 xtb: 6.4.1 (79825abcba525fcdf90b791dcacef51065a7a4e7)
C         2.19818351727645    1.28178167421716    1.75715930112952
C         3.36294530585093    1.04837362126490    0.75912777511729
C         3.42606975064119    2.34945442707993   -0.10582962043635
C         4.29223024131429    2.21762986995379   -1.42556969258267
C         4.43438463735450    0.58844765703796   -1.38587972323093
O         2.98984339058749    0.32058282474809   -1.35999832896535
C         3.04491298706899   -0.22439469386987   -0.01287563802218
C         4.06528373852526   -1.36599664994530   -0.23677497125143
C         4.84123638353145   -1.04754070717949   -1.55085308482934
C         4.11989830133237   -1.60037050042652   -2.76922940132811
N         3.47892548468888   -2.12059571987049   -3.72241339120266
C         6.24437322512468   -1.43227900670784   -1.77745800847083
C         6.98932851210578   -1.29447524130911   -2.93378077041377
N         6.59892599130972   -0.86156231315871   -4.14512419827680
N         8.24768585641547   -1.78510466751785   -2.91626300007323
C         8.52454290852845   -2.20793728240491   -1.70494415425437
S         7.25639522971663   -2.11909813143416   -0.55580327186369
H         2.47839562827292    2.07427536629873    2.46250528517937
H         2.11955935489454    0.35109216789190    2.33366226175800
H         1.23211418126764    1.56741455828136    1.31861520031550
H         4.20848186511405    0.97991491602673    1.44362637648532
H         3.99449327278611    3.02816721752770    0.53742783679806
H         2.41279576307459    2.67912605612016   -0.39917025062905
H         5.26266618162804    2.70473226307308   -1.26836425556431
H         3.74313130356069    2.49725001949640   -2.33911086760829
H         4.99090777185293    0.60143140409192   -0.42768939003662
H         2.01463462075160   -0.51215477627643    0.23568968300871
H         3.51313293232476   -2.30070257782246   -0.37672190152369
H         4.70553398674035   -1.55604681458007    0.63371234549733
H         5.62197073267716   -0.81762565117357   -4.42244135217447
H         7.21426274786895   -1.01276064506269   -4.93934190982377
H         9.46805000582594   -2.67022548217194   -1.44711603895883
