32
 energy: -49.227662055925 gnorm: 0.286367765914 xtb: 6.4.1 (79825abcba525fcdf90b791dcacef51065a7a4e7)
C         2.44982226409685    1.34772975582170    1.84027916063987
C         3.46616778455407    0.96866376426768    0.73096990411042
C         3.62346558314822    2.17350511741849   -0.25318555746813
C         4.57543623025636    2.00581774458347   -1.50815902481019
C         4.38147670698822    0.38161999822033   -1.48868463328917
O         2.92751898684625    0.18871464921332   -1.39971667184819
C         3.04650917558517   -0.28178298374817   -0.02886073013275
C         3.96858400678189   -1.49930364392213   -0.27778613650220
C         4.71269959754528   -1.27361900272544   -1.62896207498428
C         3.89726492811760   -1.78067955656446   -2.80724308336203
N         3.35214146790145   -2.31316599667419   -3.81190160436450
C         6.15886420800705   -1.48799152992774   -1.80451463089889
C         6.93235479926520   -0.98961538564205   -2.83619487705195
N         6.41390338588851   -0.46221107775162   -3.95879608491502
N         8.25297318125925   -1.23679728965228   -2.69707078900708
C         8.53826833344313   -1.78683173383020   -1.54000580435774
S         7.16770659080965   -2.22186456348709   -0.60784560169603
H         2.93746265425591    2.06452758929291    2.51294977245795
H         2.10578599939349    0.46382132976148    2.39260634830307
H         1.53131038478470    1.80647296137269    1.44901501239194
H         4.38763417528179    0.83009824956552    1.29652829381286
H         3.94210813532776    3.02584136335595    0.35470123836366
H         2.64490519507435    2.55367684195638   -0.59864946255635
H         5.62951016964979    2.30736491576555   -1.54969986418654
H         4.15387495948832    2.46678263593877   -2.41593213326769
H         4.86515762058311    0.36980369312663   -0.49172503400157
H         2.05726943242358   -0.60529303968030    0.32158194888078
H         3.42508448428831   -2.44875231350700   -0.31365141347713
H         4.67582837590862   -1.55887909850794    0.55890005624106
H         5.45688772043541   -0.76191601576798   -4.12485265680857
H         7.05606101069103   -0.51931478882472   -4.74406978902428
H         9.52168585173928   -2.06619354272160   -1.18611553517647
