32
 energy: -49.211843212143 gnorm: 0.281965892709 xtb: 6.4.1 (79825abcba525fcdf90b791dcacef51065a7a4e7)
C         2.75826811912355    1.16760504114552    2.06926427093965
C         3.66167387096787    0.70532355594655    0.89565013261628
C         3.82722585359087    2.03098458989542    0.08314621305443
C         4.10872376955654    2.13695969221749   -1.47212025059233
C         4.13311541183993    0.50345041013620   -1.55620547737037
O         2.72198575609562    0.24353080890202   -1.23954206705066
C         3.02455921426862   -0.37974098539732    0.03903302777731
C         3.91732763299664   -1.50419259178017   -0.53812859670402
C         4.62631371226471   -1.08779733762185   -1.86261782657022
C         4.09704800192345   -1.59399488005196   -3.19454578794802
N         3.70590106147232   -1.64965168882915   -4.39202085355633
C         6.08746467680211   -1.26673857258938   -1.89703085490835
C         6.93310639878810   -1.56680434398935   -2.94863971954548
N         6.61817676893926   -1.66772852477289   -4.25164174223958
N         8.23599839898959   -1.61192525116290   -2.59519403250791
C         8.40463234305042   -1.56090340904494   -1.29454421166254
S         6.94686014039416   -1.41938130001092   -0.40488843879289
H         3.22451875170748    2.10420735725097    2.40011844682739
H         2.74659394568411    0.36553159374779    2.81843866864137
H         1.76907328898707    1.33494349877382    1.62128161068386
H         4.60613192194774    0.39655638673768    1.34377827007157
H         4.66992712423810    2.60186920457547    0.48499423687306
H         2.91648722140417    2.63586304293886    0.24480475550942
H         5.02891565806661    2.58052132736942   -1.87240536056384
H         3.25394708198459    2.55079772734107   -2.03100256834150
H         4.76572632266575    0.41923666088323   -0.65026575840317
H         2.06232301463547   -0.75782578726234    0.40946179778776
H         3.44470688767077   -2.48587435465752   -0.64330165096419
H         4.67077551646683   -1.71975419611920    0.22974971547335
H         5.64544064563070   -1.70208786996414   -4.54469580187394
H         7.42099979806619   -1.78585434270122   -4.86303646668287
H         9.37766358753681   -1.47011087705608   -0.83047711345130
