32
 energy: -49.228065951319 gnorm: 0.282072984711 xtb: 6.4.1 (79825abcba525fcdf90b791dcacef51065a7a4e7)
C         2.24956321534039    1.15925022309659    1.79434179010639
C         3.40509474302832    0.97337015710414    0.77580766633691
C         3.53075807247092    2.32549125342812    0.00061444916738
C         4.17387608949969    2.30518284903011   -1.44690492897484
C         4.35432428490314    0.68056081095914   -1.51061921060450
O         2.92935024335754    0.33232286979847   -1.42517834876443
C         3.06099419045845   -0.22999816916784   -0.09054820495810
C         4.16447550963493   -1.29169701404008   -0.31340905167711
C         4.87738947134264   -0.92446301633681   -1.65027511616735
C         4.15628887211890   -1.58553876182827   -2.81362503637059
N         3.61244742379599   -2.14607731878392   -3.80361147657337
C         6.26320501686072   -1.40295481170070   -1.78712253341900
C         6.99648743704794   -1.40015250311952   -2.95900974426576
N         6.49722221459278   -0.95926196697612   -4.12671279346519
N         8.23165370702594   -1.93898795735628   -2.86677118080552
C         8.46050203505025   -2.29312753591122   -1.62381333903788
S         7.23450534355649   -1.96520782946058   -0.47228545083851
H         2.39265205303631    1.99118382239982    2.49540534449174
H         2.19368920217057    0.22827854033920    2.37303877515529
H         1.34494320877253    1.30582248800003    1.18822608296904
H         4.29302642947402    0.83650355126770    1.39306114448318
H         4.02683469722840    3.05297669484319    0.65039088936137
H         2.46242093123919    2.59921923049706   -0.07139270272110
H         5.12994395558029    2.84031672783240   -1.50429976311240
H         3.44342930072698    2.59793744159017   -2.21826527562456
H         4.85057508858300    0.69051115225118   -0.51983597133519
H         2.09998352122799   -0.71522139608225    0.12643338862691
H         3.84721255488785   -2.32962106523742   -0.17132208595810
H         4.87639272268934   -1.12501247998592    0.50462381608016
H         5.49426728194538   -0.79478072339178   -4.14415238404631
H         7.02165424950804   -1.12502437684155   -4.98098201241340
H         9.41615514980683   -2.75928438075132   -1.42427316613615
