32
 energy: -49.230305592829 gnorm: 0.283429354502 xtb: 6.4.1 (79825abcba525fcdf90b791dcacef51065a7a4e7)
C         2.66908583742775    1.16112150722363    1.96995489754562
C         3.56670344330572    0.91039487985430    0.72953760389037
C         3.60253033139529    2.24070263832483   -0.09140390302489
C         4.21824735733538    2.15771625723241   -1.54856942950765
C         4.34279071277930    0.52724364065802   -1.59402106751138
O         2.90947340464797    0.26178574725898   -1.40894154355426
C         3.01964986745137   -0.27040802160823   -0.06008883078416
C         3.95213695513751   -1.45897507110326   -0.39522852507362
C         4.71825601157206   -1.12041097261865   -1.71004940160489
C         3.92751817037117   -1.65595262559104   -2.89255481540992
N         3.38375830577098   -2.03916547416207   -3.96377527241937
C         6.15129532456349   -1.43865310580688   -1.82531702203948
C         7.01061602333027   -1.31720157129591   -2.90135050250883
N         6.73147655231126   -0.78918537033413   -4.10570123244016
N         8.30903853979568   -1.58863848929647   -2.64657946049952
C         8.43103202046319   -1.99439882380253   -1.40432073703685
S         7.03136038509246   -1.92236913483943   -0.41824430215167
H         2.76857514715086    2.16971425291337    2.39057418705494
H         2.75006913707924    0.46671552943097    2.81610052471035
H         1.61707355391117    1.06918307613779    1.66661595267576
H         4.58087582879260    0.68217147733593    1.05744834663548
H         4.21129697381499    2.92472114828807    0.50781088422657
H         2.57974603122890    2.63816805342495   -0.22327430048442
H         5.15294049508239    2.71420887010880   -1.69137318402639
H         3.48896552697779    2.46082632854796   -2.31702687686908
H         4.94574331878720    0.60690496648753   -0.66767473725699
H         2.05222472582184   -0.67587782391003    0.26509870491482
H         3.31858411289063   -2.30002140506601   -0.69419791019128
H         4.58516217928657   -1.79435856799174    0.43578567029930
H         5.79418702827414   -0.82687729261568   -4.49729346960126
H         7.32865618356109   -1.10895973517670   -4.86293493406610
H         9.38608396492116   -2.26493619020901   -0.97411534843761
