32
 energy: -49.234277715795 gnorm: 0.281156911573 xtb: 6.4.1 (79825abcba525fcdf90b791dcacef51065a7a4e7)
C         2.22302027656183    1.34117959382815    1.75406055072026
C         3.38677045039296    0.94487370278203    0.80757048543696
C         3.63343595370887    2.22332805646978   -0.05825735555786
C         4.47168741930834    2.11714191499552   -1.39817696239983
C         4.47736298953285    0.48201535832840   -1.44662074192493
O         3.02389292436097    0.28270444501641   -1.36403284624017
C         3.00532458664745   -0.27395689948478   -0.02069518784527
C         4.00834214477107   -1.42659124373612   -0.26550583725763
C         4.77538799425429   -1.17838176356752   -1.59980367011108
C         3.97718740707455   -1.68481638651523   -2.79009357267428
N         3.41254000495385   -2.11903798322362   -3.83060549683218
C         6.20359266323290   -1.45561517582177   -1.82682663413971
C         6.93898956418727   -1.28822611699608   -2.98536144342579
N         6.48654855882075   -0.72223804433533   -4.11767556826452
N         8.24725035968451   -1.57236781334584   -2.80590530555752
C         8.54997307163189   -1.99708175619943   -1.60145206107793
S         7.19673208242094   -2.07091863028957   -0.55268962962661
H         2.39064763804522    2.37189081154053    2.09112655271570
H         2.29755853582434    0.62624591518616    2.58353885830671
H         1.27318359348506    1.25986501856649    1.20780488662712
H         4.26541419655732    0.83246159564311    1.44279146129863
H         4.03305823845897    3.00787544766774    0.59160719058960
H         2.61367435641374    2.45764137629590   -0.41412226863697
H         5.49951623223029    2.49796383675688   -1.35052400902418
H         3.91803497714180    2.58400074534594   -2.22869869994294
H         4.91724981975158    0.45154468423135   -0.42996622433712
H         2.03239446125369   -0.71204312851604    0.23921157116783
H         3.46289057447583   -2.36199599848204   -0.42560380693622
H         4.64727919011783   -1.61326922884373    0.60667441746624
H         5.53317791999849   -0.90608750897771   -4.41860847468867
H         7.17657511888639   -0.66349303448699   -4.86110976625800
H         9.56570463067155   -2.16384227452609   -1.26847805670223
