32
 energy: -49.188425775046 gnorm: 0.294617370051 xtb: 6.4.1 (79825abcba525fcdf90b791dcacef51065a7a4e7)
C         1.96371656085063    0.88524913347931    1.90266344226191
C         3.19655316216684    0.57120236796648    1.01457289038450
C         3.56175362466210    1.95925450131593    0.39418012978402
C         4.63216748152037    2.09379341935353   -0.76575049152040
C         4.44166584637358    0.50846150389208   -1.12134827572809
O         2.99260637442030    0.37323413487384   -1.32398358374955
C         2.88296789491913   -0.41165548475789   -0.10468033834019
C         3.77085384377555   -1.56716333559811   -0.62525946548227
C         4.78957547054152   -1.05015901294093   -1.68602856609671
C         4.33013698988960   -1.04755133768708   -3.13492467403207
N         4.67628214931477   -1.04719410331492   -4.34745248461730
C         6.22581860290103   -1.29092644942583   -1.90375170218485
C         6.75854632407192   -2.31129083796364   -2.66931594734563
N         6.19315088494903   -3.26644360541326   -3.42773006211607
N         8.09036485901563   -2.13111157963471   -2.80452786612799
C         8.54879043062723   -1.07422493328900   -2.17558650304119
S         7.37346031491341   -0.10339629486014   -1.39283074056020
H         2.13159573761306    1.80699943134079    2.47386481670154
H         1.72496015298798    0.01374732771361    2.52572071355085
H         1.13587062689734    1.02118701863300    1.19316429549553
H         4.02790898213258    0.16577501672446    1.59131648952062
H         4.01332795662172    2.60645388803933    1.15230287198119
H         2.69329155213023    2.59684508971931    0.14778986759216
H         5.62136550279945    2.37141194596323   -0.38085637067691
H         4.20940022214397    2.92880930291251   -1.34736112342447
H         4.78336291337651    0.25618098551950   -0.09781862477076
H         1.86353385709999   -0.76101978390844    0.10689223321770
H         3.11276792158689   -2.33171868087701   -1.05012287174415
H         4.21958642809764   -2.01998581291642    0.26770108093519
H         5.20996412001422   -3.45372705374757   -3.25011939392861
H         6.79087547972065   -4.04031384504806   -3.70365076523111
H         9.59558878658637   -0.89567982980773   -1.96888328663798
