32
 energy: -49.233641282972 gnorm: 0.279500525694 xtb: 6.4.1 (79825abcba525fcdf90b791dcacef51065a7a4e7)
C         2.36361120999740    0.99264755741513    1.89779672842829
C         3.49125778772636    0.77527216855663    0.85454344841519
C         3.82104578253349    2.15982104144719    0.20707796575682
C         4.41001382905342    2.18886760444861   -1.26315960194456
C         4.39849421761212    0.56204827134514   -1.43446053805149
O         2.94137075621256    0.39135393137003   -1.35214718044583
C         3.03584417255520   -0.32703269551484   -0.09128710523326
C         3.89226800337659   -1.51924234254610   -0.58089591983372
C         4.70115139030007   -1.05676436377007   -1.83075182300797
C         3.96159604376097   -1.45439826187685   -3.09777013523895
N         3.36611941975585   -1.80696501306623   -4.15187848446249
C         6.14865174295515   -1.31759389974978   -1.90058764148351
C         6.93082539106661   -1.68166895840694   -2.98071926924893
N         6.58719246690922   -1.77075123286837   -4.27731535119844
N         8.24896580602445   -1.76235578601367   -2.69702436469523
C         8.49809076208290   -1.55582596034612   -1.42501305159796
S         7.11304934691736   -1.23493323192003   -0.46829792567801
H         2.68056036485352    1.79247714333234    2.57889430090904
H         2.23717484664879    0.12866685030336    2.56283173738493
H         1.44701554048674    1.28629432048707    1.36787126928969
H         4.33214665880797    0.39091176453950    1.43189082198182
H         4.50616395317611    2.64261300665767    0.91068404774963
H         2.88286539118907    2.73716067532605    0.11789958694441
H         5.43932858112667    2.55721195937283   -1.17062969292669
H         3.86604262782831    2.83790961656395   -1.96820877959959
H         4.92677170461321    0.33266141006559   -0.48771883285274
H         2.08459053619978   -0.76535353629113    0.23894835409792
H         3.16632641877424   -2.30932184146556   -0.79749238177601
H         4.50208077601914   -1.92509610306619    0.23592641381049
H         5.61729465357256   -1.91974341956435   -4.54260080860848
H         7.21856828657171   -2.34963576731501   -4.82370285790265
H         9.51911118415163   -1.54663328288497   -1.06748801539610
