32
 energy: -49.226903661941 gnorm: 0.285573015124 xtb: 6.4.1 (79825abcba525fcdf90b791dcacef51065a7a4e7)
C         2.23098552058382    0.91063073900729    1.96337546021004
C         3.32397658092723    0.75048259052198    0.87390798339412
C         3.70680824013901    2.14516038961041    0.27955033533518
C         4.54099538878601    2.27287707508188   -1.06102633841128
C         4.54362479397427    0.66166799940915   -1.34389779259214
O         3.08670719519648    0.50509894638416   -1.45343352038625
C         2.98364430262185   -0.25442764062600   -0.21760581983340
C         3.95374269160193   -1.40621807866130   -0.57373826661768
C         4.77303642369863   -0.94811667842937   -1.81841448808347
C         3.87800290730723   -1.24352526054110   -3.01090726573042
N         3.29738970769295   -1.68041022969765   -4.04147021057086
C         6.17425229054607   -1.37526625178554   -1.96775871507690
C         6.89165700754040   -1.98227633497692   -2.98161266013758
N         6.50406478368023   -2.48797403425047   -4.16534520486581
N         8.19268901891650   -2.12224714379168   -2.64663326504973
C         8.55661428874870   -1.52508341033135   -1.53591977168205
S         7.21133573921118   -0.92564266726770   -0.65984208327193
H         2.46482114793215    1.82887794517714    2.51674785227262
H         2.22599835957412    0.06146725056851    2.65880114109132
H         1.29306830174012    1.02541173295125    1.40272079875415
H         4.15740766144552    0.26308714599003    1.37986778384382
H         4.30117656180945    2.69170419898216    1.01816570976924
H         2.71247168612331    2.60791156321624    0.14312287528408
H         5.52709812945129    2.74585404945233   -0.97372014665784
H         4.03611132871348    2.80539728493022   -1.88307795686084
H         4.97965117671751    0.39318387441956   -0.36114016203579
H         1.95755296595559   -0.64141968565648   -0.15897285456063
H         3.34281520089841   -2.29042709929283   -0.78127823964603
H         4.59919410826014   -1.74241680087820    0.24732842362051
H         5.65168583367518   -2.10267047283584   -4.56317444740745
H         7.30427334690050   -2.58068353339886   -4.78450046994444
H         9.51911297802813   -1.50086956347729   -1.04256257841227
