32
 energy: -49.227946692831 gnorm: 0.289243430942 xtb: 6.4.1 (79825abcba525fcdf90b791dcacef51065a7a4e7)
C         2.08265022431537    1.35417746433277    1.66586613660357
C         3.30700929086562    0.98378243407174    0.78781792154736
C         3.47540917802318    2.27134526343708   -0.08325652667546
C         4.37940119661784    2.26045581617063   -1.38402761337827
C         4.49930878631907    0.62921996590516   -1.35738924425562
O         3.06447860323717    0.31242037269840   -1.36199282980573
C         3.10934924837501   -0.28134122526216   -0.03526509136342
C         4.08157245937795   -1.45811513016205   -0.28928796755513
C         4.88302861438133   -1.00946063908133   -1.54892885919750
C         4.04661040916136   -1.59930063811526   -2.67270980783031
N         3.37536871755635   -2.12288737235356   -3.60294186097227
C         6.26195455559457   -1.46350862811035   -1.79503862083163
C         6.97497934253594   -1.37998613570147   -2.97641503864329
N         6.43702519798941   -0.97703467979838   -4.14063842684661
N         8.24464416425952   -1.83945215689134   -2.93995237741385
C         8.59158691002970   -2.18162928047648   -1.72123332098374
S         7.35118520622105   -1.98025668508816   -0.55612886783969
H         2.29021359235792    2.22182615425650    2.30475676522544
H         1.89418591493269    0.50958655396920    2.34104594811586
H         1.17984587249837    1.44869868827386    1.04682891990585
H         4.12495470860419    0.82817099090404    1.49131445739303
H         3.84818688785203    3.06448105285807    0.57211276398723
H         2.47711403884731    2.61493158502804   -0.41007687166246
H         5.29891220438971    2.81958054900962   -1.17046909774478
H         3.92159014333817    2.56926706304545   -2.33759942486520
H         4.91899192099986    0.53675907856784   -0.33595283311527
H         2.11382946766691   -0.70435307114168    0.15464395002374
H         3.51991483346639   -2.36803139333463   -0.52321944207238
H         4.81287547348888   -1.62131722188169    0.51217856448242
H         5.45531897295571   -0.72330723316653   -4.21241643346417
H         7.01750951765636   -0.91693669983486   -4.97232840571684
H         9.53968598054561   -2.58145739142295   -1.38711209789535
