32
 energy: -49.233201349896 gnorm: 0.277601446540 xtb: 6.4.1 (79825abcba525fcdf90b791dcacef51065a7a4e7)
C         2.56890300776647    0.95247288970089    2.02985209277796
C         3.49568591776286    0.88418222985405    0.78742459242017
C         3.59204485284503    2.24460443128496    0.02262811951963
C         4.36824805864072    2.25797796252572   -1.35818877593111
C         4.38343195923234    0.63351667467379   -1.55031584623297
O         2.93701364286807    0.42870013763254   -1.39205951430903
C         3.03840497361005   -0.25506413353978   -0.11262255965438
C         3.98155790158283   -1.42139559940352   -0.49298539279377
C         4.69912816405370   -1.00960745302680   -1.81428832779162
C         3.92270326684536   -1.53116936851328   -3.01242345347945
N         3.35793459012800   -1.95715575623862   -4.05626830570774
C         6.10630919627901   -1.43478677770654   -1.89932029444966
C         6.97147844974187   -1.60360694690610   -2.96422052744178
N         6.62413263235349   -1.45942457968315   -4.25485717899534
N         8.27128181065875   -1.80089742515126   -2.65426084766350
C         8.45540463077984   -1.78167805479846   -1.35485329207865
S         7.02644335139610   -1.54214331668629   -0.43980768269247
H         3.04493084998303    1.57198774586352    2.80035639045960
H         2.44149402759146   -0.03584623260648    2.48997451527624
H         1.57465703672155    1.30112742105831    1.71822410634841
H         4.45965887250533    0.77209024460873    1.28375969436445
H         4.11683456998508    2.91403619544293    0.71109988671758
H         2.60101781442327    2.70555519775494   -0.14121962191329
H         5.42771915493914    2.51924833294452   -1.24422827114787
H         3.82832382067540    2.80740744578080   -2.14613776188126
H         4.96109601731609    0.56352447507186   -0.60722485212630
H         2.03580070429918   -0.62862800641957    0.13496340738506
H         3.41475881714350   -2.32205159828205   -0.74928288282063
H         4.77312859342669   -1.56702209069630    0.25266626187317
H         5.65395303237714   -1.58208143949296   -4.53231646077318
H         7.37215165311325   -1.85582430902085   -4.81665504204706
H         9.46219632831248   -1.89781025080727   -0.97633625227516
