32
 energy: -49.229791287192 gnorm: 0.275667260173 xtb: 6.4.1 (79825abcba525fcdf90b791dcacef51065a7a4e7)
C         2.22847749969272    1.29172169351970    1.74982807221304
C         3.38479505607847    1.00928253839417    0.75465265835172
C         3.49512832167772    2.26623433889320   -0.16884395747493
C         4.40484672214653    2.17807346485454   -1.46266220670713
C         4.43464396547478    0.54269942315706   -1.43655231722623
O         2.98978320161768    0.27817453671516   -1.39750381081644
C         3.03416008938168   -0.24090639652627   -0.03980046381462
C         4.09826307103955   -1.35241109921159   -0.20346035239330
C         4.84054943540715   -1.09786677602415   -1.55050754935536
C         3.97119906818999   -1.62068878813361   -2.68244277542070
N         3.66815604984561   -2.06746966471323   -3.82200055712492
C         6.25073841722787   -1.48072728043332   -1.73203230774655
C         6.89746588751208   -1.30820276718420   -2.94158159908497
N         6.36685288310938   -0.65957686178246   -3.99273093302359
N         8.20057553943615   -1.65425130795624   -2.86007720289849
C         8.54204136809077   -2.18584079032913   -1.70962324743363
S         7.28415016298883   -2.19735816525281   -0.54592536381525
H         2.39124682056447    1.99524787966912    2.57604541034928
H         1.89651121678794    0.33541132467310    2.17407946619033
H         1.40062338883072    1.73635950631535    1.18048474686276
H         4.31431772742820    0.87339983369661    1.30753646040968
H         3.85470339223561    3.05209828322031    0.50246829347446
H         2.47561021292576    2.54930646254775   -0.48807628975136
H         5.42848150214419    2.56420572674896   -1.54513596777924
H         3.82722659304972    2.62369358850635   -2.28851463931175
H         4.95498192148149    0.55786293707538   -0.45827128786502
H         2.05176669448431   -0.67419771453960    0.19090703577516
H         3.62302938792447   -2.33566910381157   -0.27753785272936
H         4.82509727140665   -1.38369133583106    0.61783205329479
H         5.37467304380090   -0.82211663621182   -4.14252013963581
H         6.98533916945895   -0.65031096852214   -4.79875258003904
H         9.55239685914070   -2.42744850386230   -1.40763176835671
