32
 energy: -49.227569503762 gnorm: 0.283903762451 xtb: 6.4.1 (79825abcba525fcdf90b791dcacef51065a7a4e7)
C         2.11938543675848    1.37344231795387    1.70748024755223
C         3.31961151108619    1.11313322666441    0.75937011843880
C         3.36562563929405    2.25410947666401   -0.30880737220502
C         4.04512700937949    2.09137966279139   -1.73046923910224
C         4.39287190955011    0.51144461202551   -1.48778308162599
O         2.97815630067616    0.18753849869993   -1.25803233215496
C         3.17118768524692   -0.25701991824423    0.11305460865213
C         4.29379200550118   -1.31220900561863   -0.03143740852251
C         4.90746474641852   -1.10190373699304   -1.44900414633297
C         4.17581310472488   -1.81250878648408   -2.57599864375073
N         3.48634539898833   -2.14622749739818   -3.57765040689097
C         6.33737762782799   -1.40084205783606   -1.63380510549766
C         7.00098052255834   -1.01824730338052   -2.78458008832241
N         6.57459349589155   -0.17826650472387   -3.74364578001656
N         8.23710008171464   -1.55241525939355   -2.89022263945542
C         8.50303596287860   -2.41666539711453   -1.93886550379940
S         7.26677849128216   -2.56894227728593   -0.76196495025404
H         2.30336419676002    2.19113687250619    2.41572135573974
H         1.94837199638668    0.43296352364525    2.24690069604820
H         1.17972359344416    1.53705568528432    1.16207826640095
H         4.27286782775288    1.21038586296653    1.27898663318765
H         3.85266563698827    3.12657137583117    0.13744231506928
H         2.32147805470369    2.51918635239334   -0.55568052674619
H         4.97549187734327    2.65525991398556   -1.87255541601937
H         3.42963722827519    2.33126537487369   -2.61244527015772
H         5.00437205217530    0.69815755187123   -0.58267472141885
H         2.25023454717172   -0.75805648157302    0.43996710085684
H         3.82065314436607   -2.28715396622397    0.12268191696024
H         5.11144679021911   -1.24841692965780    0.69736904486168
H         5.60064966194605   -0.01766963464669   -3.98637786456174
H         7.24042133823927    0.02678917520128   -4.48317771911636
H         9.46166556312148   -2.91660423702299   -1.90037128403016
