32
 energy: -49.227621689935 gnorm: 0.278527945526 xtb: 6.4.1 (79825abcba525fcdf90b791dcacef51065a7a4e7)
C         2.59070517835766    1.05141990210301    1.98084559388227
C         3.57972583360397    0.99171341363118    0.78690692293951
C         3.60908076669235    2.29929368748777   -0.07001744445548
C         4.21651923664563    2.25567277420719   -1.53235847459177
C         4.28403585127591    0.62221600641647   -1.58961517608979
O         2.84982808277221    0.40570608054828   -1.35447191550584
C         3.09714950882141   -0.18534190830648   -0.04899610638979
C         3.99943282993541   -1.38674166499806   -0.41922016079191
C         4.68898990822129   -1.01299918215346   -1.76649355317779
C         4.03525612045782   -1.74279261518214   -2.92857096782337
N         3.61072653205278   -2.20880657864439   -4.02065418556174
C         6.11848506701573   -1.35819654171451   -1.84098341082336
C         6.95562656941756   -1.50082859224450   -2.93179999044384
N         6.64765485596324   -1.07010744826863   -4.16744288635961
N         8.25376007740844   -1.77811731430940   -2.68190465111428
C         8.45448242090772   -1.94060203625442   -1.39503253238503
S         7.04033557885222   -1.77957913638452   -0.44063427605912
H         2.75156360475807    1.89920144478433    2.65868706416772
H         2.77527413412664    0.08867230048674    2.47457804794541
H         1.57553867045163    1.07567101507624    1.56126737686927
H         4.56921553438216    0.80715970371360    1.20524537962434
H         4.08997122532624    3.01962623313317    0.59886363496369
H         2.54578857739993    2.60066229026387   -0.07657245082938
H         5.19196429127189    2.75757208004711   -1.55058572183177
H         3.50857303022864    2.63915331871805   -2.28469442803790
H         4.94453275618657    0.56563577408524   -0.70160739923846
H         2.12584710391613   -0.54689787032536    0.31420221950346
H         3.26850688260875   -2.20141024308683   -0.43311958951313
H         4.72241654377030   -1.63203833630103    0.36875935241565
H         5.68408531731030   -1.05084071238549   -4.49061366682154
H         7.22286580137973   -1.51424740989443   -4.87748098544899
H         9.38404635495101   -2.28125726173620   -0.95884877670278
