32
 energy: -49.232089488248 gnorm: 0.279847082719 xtb: 6.4.1 (79825abcba525fcdf90b791dcacef51065a7a4e7)
C         2.67618202173867    0.98230049176862    2.02476143472728
C         3.59330312180654    0.84486455399712    0.78088984953631
C         3.66820779676989    2.19835848960367    0.00153709883064
C         4.29609775465933    2.21108433952103   -1.45273860342791
C         4.31890968173618    0.58399360554252   -1.62028920213221
O         2.88576920494200    0.33797791735653   -1.40885249410730
C         3.04176561640563   -0.26972435973534   -0.09693185529446
C         3.93920880458949   -1.44975214757402   -0.54040965257122
C         4.72345315092717   -1.04789559486583   -1.82640736478661
C         4.01581425490626   -1.58074271651307   -3.06160426844359
N         3.26527073531605   -1.87185645332837   -4.03215945221640
C         6.14379760836684   -1.43120409161088   -1.88855701280132
C         7.02443777394977   -1.55222483921153   -2.94726257652478
N         6.66567340139191   -1.45638077319195   -4.23926980330731
N         8.30813361477378   -1.76682034315938   -2.58593022492749
C         8.42735871750953   -1.80424628375072   -1.27936401309098
S         7.00041662627858   -1.47930810976693   -0.38781079072309
H         3.14540835423687    1.51876024645428    2.85909686877545
H         2.40317473525148    0.04433284370831    2.52516536333112
H         1.74866319150350    1.51786701306255    1.77966072935563
H         4.54264776157726    0.51732292180933    1.20470376791031
H         4.30653939479506    2.83407652656807    0.62277123858912
H         2.65204183289057    2.62862231524033   -0.05958618474234
H         5.29427045787429    2.65833295801239   -1.53845984177382
H         3.64435598035711    2.74288606177147   -2.16454906524395
H         4.86977230317104    0.49301835662657   -0.66305925278606
H         2.01992716540756   -0.56408070299081    0.17741212699150
H         3.21684046108879   -2.22784635113999   -0.80665055339131
H         4.60283403987749   -1.76161988693136    0.27575680083413
H         5.68695920584695   -1.29159258724418   -4.45890629867359
H         7.30540502873394   -1.63804639294479   -5.00739940096856
H         9.33598692312680   -2.02324409891167   -0.73454652137874
