32
 energy: -49.231247040263 gnorm: 0.275458799908 xtb: 6.4.1 (79825abcba525fcdf90b791dcacef51065a7a4e7)
C         2.48776825508077    1.09643085092215    1.95730248061105
C         3.50169814729357    0.91162386514106    0.79755732655889
C         3.60918980346478    2.26622330255447    0.02395978048736
C         4.20872745090911    2.28121810992425   -1.44221051383968
C         4.40724273276409    0.66136850777452   -1.55489052153864
O         2.96486757694548    0.42037612170872   -1.41137254122756
C         3.00977991026378   -0.21272317782735   -0.10296096207050
C         3.95727267860606   -1.37513482401518   -0.48453537309265
C         4.75568438762217   -0.98293548580959   -1.76478395010733
C         4.01451331438049   -1.55749915733769   -2.96099976215781
N         3.50876082328111   -2.26680509853947   -3.87266836528058
C         6.17255103745091   -1.37662326309644   -1.84005133496355
C         6.96671779934406   -1.48546645655405   -2.96632079994836
N         6.58271069536726   -1.26301318456565   -4.23527064977759
N         8.21865606986588   -1.92276741962167   -2.70959964879007
C         8.47736130234666   -2.06038502790484   -1.43019995051360
S         7.15561885589941   -1.60911332162883   -0.43724151824829
H         2.79732793737225    1.84748374451638    2.69498153707498
H         2.43650864656257    0.14508721752340    2.50231452033323
H         1.46932018276417    1.38057906582377    1.65860472220370
H         4.42339696477298    0.62918664209277    1.30633773955279
H         4.12953676510740    2.95028954649350    0.70132889776185
H         2.55366060332163    2.57175999816379   -0.09419993545809
H         5.17326973045553    2.78902892866150   -1.56676799311039
H         3.44875590943270    2.64454191090764   -2.15262843150841
H         5.02234604544937    0.62613352003008   -0.63379242538989
H         2.03044777636366   -0.55017097215226    0.26187003281970
H         3.34743301723613   -2.25368732212796   -0.71771325820314
H         4.60513703605164   -1.80056059496266    0.29204192915997
H         5.60599515765533   -1.30826670382017   -4.51321972777400
H         7.38216196822291   -1.36955217158669   -4.85317771722574
H         9.44111597787375   -2.33530155137791   -1.02278224321799
