32
 energy: -49.231717864864 gnorm: 0.283739564373 xtb: 6.4.1 (79825abcba525fcdf90b791dcacef51065a7a4e7)
C         2.45049885446470    1.12800063015808    1.94599808806003
C         3.45238854549501    1.02253236964150    0.76603632575840
C         3.59288334231533    2.28879341138842   -0.14049080392202
C         4.17070511062860    2.12217404122792   -1.60598920133234
C         4.27752715552854    0.48987101236134   -1.61990774157795
O         2.85241260605222    0.24361361312922   -1.36004885613012
C         3.06347936201797   -0.23263386529375   -0.00232581270622
C         4.01235280766256   -1.41569452665769   -0.30981412182829
C         4.76028523844768   -1.13350402992229   -1.64820255055694
C         4.04920724758466   -1.74230497527559   -2.84574993984804
N         3.51142784111999   -2.18164155252032   -3.89827871691203
C         6.20346828171943   -1.38904847305328   -1.78992795800084
C         6.95770745373142   -1.28273086042767   -2.94355286506391
N         6.66574639166510   -0.68367079315783   -4.11105721509108
N         8.25966108755077   -1.56811411353746   -2.72455411911120
C         8.50861289966636   -2.00450052513193   -1.51198639441427
S         7.15268164682648   -1.96482217951779   -0.46485136791080
H         2.64002306948061    2.04750748457022    2.51403484070862
H         2.68442769102500    0.23509465429858    2.53989757219266
H         1.39469359360504    1.10362856412082    1.64288377324384
H         4.40006244100055    0.82139525567382    1.26565122924949
H         4.21662785151118    3.03315855973249    0.36388982583206
H         2.57457335548782    2.71797746710242   -0.15787177795795
H         5.16407489238041    2.55633537811210   -1.77465637700034
H         3.42053078170156    2.44630227791045   -2.34520088433782
H         4.92565950250451    0.52792540154642   -0.72185895498868
H         2.18023180564850   -0.70826980236395    0.44456154081233
H         3.40328967969797   -2.30921665027018   -0.47949366972792
H         4.71156375268464   -1.65069272816195    0.50238506272934
H         5.66640147565640   -0.62707881143515   -4.28821224041365
H         7.22265294289042   -0.98466148988010   -4.90575321328418
H         9.49961768784865   -2.30688865999514   -1.20075933214169
