32
 energy: -49.230392320635 gnorm: 0.277103445956 xtb: 6.4.1 (79825abcba525fcdf90b791dcacef51065a7a4e7)
C         2.59895949952398    0.69863314777521    2.13241342631130
C         3.49719273520247    0.59287416872915    0.87177534981860
C         3.68000599431777    2.06392570481635    0.37424751724075
C         4.43710056144296    2.30285289333331   -0.99653590149696
C         4.40359397782744    0.72913478438968   -1.44185204779997
O         2.94254778400553    0.60202441676789   -1.35070490688121
C         2.95167656905357   -0.31463606253528   -0.22180148770120
C         3.77259652419050   -1.47257592084265   -0.83808723000521
C         4.65433470132477   -0.86099466340540   -1.96893829268149
C         4.09601160673067   -1.00321833966404   -3.37550786993288
N         3.72692055148830   -1.34662570529897   -4.53131205279428
C         6.07431576756414   -1.24989369691824   -1.99297271049626
C         6.83172918329448   -2.07036825542807   -2.80794325797329
N         6.42755134069535   -2.82179143630452   -3.84678111882647
N         8.13353875984513   -2.18926374523899   -2.46788003714408
C         8.48009488248038   -1.48648592521075   -1.41491623083593
S         7.13561038576951   -0.64048748204345   -0.77206028645503
H         3.01637995007119    1.34799622438294    2.91226328217234
H         2.39440178075594   -0.28808195884948    2.56746493692965
H         1.67915511489511    1.17641979679116    1.76789066025723
H         4.47735338998953    0.27211000157988    1.22469523038252
H         4.22283020043948    2.55155776893872    1.18978007889728
H         2.67791410544959    2.52826129643742    0.33349722379601
H         5.50279955782717    2.52021917276071   -0.85243261150500
H         3.99631253290658    2.99734244798198   -1.72977850722844
H         4.92927187308110    0.52532830318588   -0.48783896443642
H         1.95054808804664   -0.69536242931702    0.02079549070343
H         3.02480815002314   -2.17524227633518   -1.21914282056314
H         4.41190774566918   -1.99864129373511   -0.11814000883105
H         5.49710334191819   -2.65380737610377   -4.22004334349496
H         7.22469386506432   -3.26881532119635   -4.29064537492280
H         9.46097645948125   -1.48346083202402   -0.95856818796400
