32
 energy: -49.229743406799 gnorm: 0.281114267882 xtb: 6.4.1 (79825abcba525fcdf90b791dcacef51065a7a4e7)
C         2.37959790962285    1.35150110368990    1.80942568635688
C         3.42937571439649    0.90263014984926    0.75885550901765
C         3.73355762356682    2.20156813229667   -0.05673062381057
C         4.38745329093248    2.14814610410512   -1.49856699243325
C         4.39230885748490    0.51238682460249   -1.48165988555611
O         2.94297297848309    0.27241898205076   -1.45064744813900
C         3.02208827926288   -0.28050450095270   -0.10796763093940
C         3.96078613169206   -1.48238622778126   -0.37039680646009
C         4.74046233722749   -1.13404734319945   -1.67465254495045
C         4.04353588837097   -1.66929583951165   -2.91489156255702
N         3.35247328546599   -2.33365722948261   -3.73409640163271
C         6.16578987204980   -1.49468713548764   -1.75556434269685
C         6.93425015857257   -1.18898902603350   -2.86328635936216
N         6.46634901305762   -0.70747403387826   -4.02792899734240
N         8.22905800956564   -1.56447672299533   -2.77980619259078
C         8.51749843905863   -2.00069140852966   -1.57595841971116
S         7.20959857153031   -1.98763719717738   -0.46878037570872
H         2.77539071693566    2.27265704127455    2.25540531456742
H         2.25712885930337    0.61951903411638    2.61808133676939
H         1.42567984638279    1.47055041432634    1.27738750588976
H         4.26651382457685    0.60306872126166    1.38942647154645
H         4.42247994628730    2.77608332866140    0.57005070286442
H         2.75372306917173    2.69420144110512   -0.19345279681627
H         5.38727080799458    2.56354008326861   -1.67616479228083
H         3.66587015551542    2.54918905437645   -2.22845525711794
H         5.00575835559210    0.47327755089161   -0.55961570474890
H         2.04694769733244   -0.66562186597502    0.21891087721128
H         3.24470259566354   -2.28050503309248   -0.59030945522379
H         4.68270921054051   -1.80450505328310    0.39042784505066
H         5.46248836144302   -0.68399921148742   -4.18600980087943
H         7.10367942189691   -0.80079608449378   -4.81366621935220
H         9.52427494893429   -2.25761541411330   -1.27465712003209
