32
 energy: -49.235477809418 gnorm: 0.283578591519 xtb: 6.4.1 (79825abcba525fcdf90b791dcacef51065a7a4e7)
C         2.28201402680996    1.31226663107456    1.80151180895122
C         3.37816137809484    0.92073775767881    0.77565490183240
C         3.65569960155929    2.21904207053145   -0.05037518197697
C         4.39138890354049    2.12147393526148   -1.44986340193233
C         4.44145368015395    0.48668427794435   -1.48107486853406
O         2.99576987663328    0.23873301552072   -1.39367154388060
C         2.97697532079863   -0.29859281194207   -0.04248672303316
C         3.96287679149144   -1.45503567331616   -0.33434388996914
C         4.78376074815610   -1.16574677344857   -1.62770364306302
C         4.03484154036648   -1.53983193408988   -2.89639216760128
N         3.29907169079126   -2.01937476990779   -3.80122449870868
C         6.20440812807271   -1.50903704696469   -1.80681022698070
C         6.95227120775634   -1.43354761718364   -2.96699674684186
N         6.50274603276086   -1.03676005176446   -4.17018724927361
N         8.27452759919606   -1.66167804971810   -2.81181344722122
C         8.58549995471384   -1.85673430304484   -1.55166272407730
S         7.24941401021635   -1.87299328204444   -0.47871086532821
H         2.64816061720902    2.12317644996153    2.44372670745349
H         2.03458502986105    0.46156861055626    2.44944093198564
H         1.36739023299268    1.68431451179904    1.31959820174645
H         4.23249744883201    0.66645944240454    1.40303789454828
H         4.20924166830597    2.93861657864382    0.56064054247942
H         2.65688214547283    2.64896522465787   -0.24782404603659
H         5.39486242671849    2.56236448809189   -1.40103088336868
H         3.82348242957376    2.60281459831356   -2.26229675358134
H         4.91600250326966    0.46330146140910   -0.47993953737456
H         1.96962143643756   -0.63072423979266    0.24210238762532
H         3.41447327312285   -2.39602252793572   -0.44355994697217
H         4.74216562280384   -1.53453369187822    0.43388563683693
H         5.48839695029736   -0.97781719034001   -4.20016215852195
H         7.08598935531363   -1.15517039971696   -4.99364838975744
H         9.58305688880975   -2.12760490740928   -1.23244393146193
