32
 energy: -49.226709188550 gnorm: 0.284979726257 xtb: 6.4.1 (79825abcba525fcdf90b791dcacef51065a7a4e7)
C         1.96184155908852    0.39760040559742    1.76273711612434
C         3.28270575988333    0.31774166548001    0.95270216866294
C         3.75240476230323    1.79271119627391    0.73180629398915
C         4.74839308118240    2.21546329343691   -0.42517836667097
C         4.54676403600670    0.77141516784862   -1.16685793528155
O         3.08191647701115    0.80117670132389   -1.27846753165394
C         2.90322422052449   -0.32384137294671   -0.37448959527646
C         3.82866093345256   -1.39319222719530   -1.00265999443385
C         4.78444317262516   -0.68017608032032   -2.00685433410806
C         4.29803994045129   -0.74248058049554   -3.44557608237664
N         4.02755157160880   -0.95441624983880   -4.65881944090864
C         6.20078195547569   -1.08120737143815   -2.04325095200049
C         6.69911372672708   -2.35096312315591   -2.26778686366230
N         5.94863454139817   -3.42638945822886   -2.56345530738256
N         8.04034892641807   -2.46369205719172   -2.15435124316618
C         8.55992319648936   -1.26622385712519   -2.01708113674837
S         7.48632622499365    0.06091245421170   -1.86636799078571
H         2.11730578122735    0.90934099963904    2.72087618562938
H         1.59595806056652   -0.58433134313711    2.08932506124479
H         1.21457907360315    0.90396238062707    1.13632402282937
H         3.95606698999561   -0.24468344540039    1.59955582407417
H         4.20862108538107    2.07800726266715    1.68470152970475
H         2.82023024794079    2.37161004240225    0.59996136809243
H         5.80906747961606    2.31508410246762   -0.16293092441385
H         4.30954493880828    3.09242794799314   -0.92777148994375
H         4.82849650223364    0.18510589692157   -0.26970491021357
H         1.86588518971302   -0.66106798236302   -0.50204368659028
H         3.29896966097193   -2.20656653544399   -1.50860486945513
H         4.42536441768952   -1.89305066896415   -0.22943679927049
H         5.17617217348951   -3.43003448350727   -3.22418627819420
H         6.52581013946307   -4.24567760449380   -2.73054001848729
H         9.62985170356510   -1.13083435924149   -1.93155901441279
