32
 energy: -49.226854698929 gnorm: 0.277113835982 xtb: 6.4.1 (79825abcba525fcdf90b791dcacef51065a7a4e7)
C         2.12782548072682    0.73597914325417    1.86896519663334
C         3.32391470215319    0.70383040151714    0.88126417671581
C         3.51887416171741    2.11657018123981    0.24008995549234
C         4.45617291308848    2.29533827528017   -1.02436193782962
C         4.47602817920691    0.70128837421871   -1.39127957635467
O         3.03119098907738    0.43385974158305   -1.39822581573685
C         3.04967916399573   -0.35541975985203   -0.17696877579865
C         4.11209543451955   -1.42024340429278   -0.54023822531929
C         4.86706439505130   -0.89554561269538   -1.79921880636872
C         4.01333721497255   -0.92478666607146   -3.05647181145262
N         3.32119358337737   -0.87402323070522   -4.10927778365699
C         6.27066246023868   -1.32207332950466   -1.92631302135488
C         6.90559398144471   -2.10250899209474   -2.87437037297407
N         6.24371670752734   -2.63765206645279   -3.91490917904519
N         8.22355317480737   -2.34089359712630   -2.69931706619850
C         8.62701368580506   -1.69390259361225   -1.63097589781058
S         7.43157021318296   -0.85648868161681   -0.73305132319978
H         2.20593098001753    1.59088628961351    2.55242063676041
H         2.06959987862987   -0.18782415871423    2.45881061562931
H         1.16837281890076    0.74388034581669    1.33362867059039
H         4.20811046664217    0.34086889203013    1.40530024213947
H         3.71399664549456    2.76581890444799    1.09912419246898
H         2.56390031210271    2.51301632787173   -0.15018133897548
H         5.48257649067047    2.67760600828352   -0.96036751498852
H         3.92212346113133    2.91137484230824   -1.76567474841167
H         4.96213965259590    0.64150809666793   -0.39722864861759
H         2.05667398167727   -0.80688980057638   -0.04976968218093
H         3.69306901923784   -2.39428614206968   -0.81187850463503
H         4.80767745270287   -1.58732253114770    0.29164989465113
H         5.33372928351340   -2.26308934803303   -4.16966881851712
H         6.82157135469198   -3.00060760371120   -4.66765702612795
H         9.66652905520743   -1.68130427309826   -1.33157576633246
