32
 energy: -49.227570469881 gnorm: 0.282497481673 xtb: 6.4.1 (79825abcba525fcdf90b791dcacef51065a7a4e7)
C         2.88502997940405    0.87488418502247    2.11860024651523
C         3.64351731237888    0.76329705692584    0.76972606811678
C         3.69530237609854    2.16709724344329    0.08298696173996
C         4.40917318028711    2.14447999101635   -1.33094461476225
C         4.27841405414501    0.53801110312302   -1.61054723355755
O         2.83122624731115    0.45710353672723   -1.36925438072344
C         3.02244529095556   -0.29028934490012   -0.13652900219670
C         3.82246796565235   -1.51114965837648   -0.65034436824559
C         4.61549640946497   -1.09186062157547   -1.92534263932456
C         3.81247276838378   -1.47954691349261   -3.15629454884906
N         3.28077299520905   -1.98121333399603   -4.18375077249002
C         6.06585645200889   -1.34560936133649   -1.94062914467464
C         7.00902341116976   -1.60330190897807   -2.91790148535541
N         6.73882621545750   -1.78224037983932   -4.22256816156222
N         8.28463162761055   -1.79103571245473   -2.51532601780031
C         8.37537386843343   -1.52738474788030   -1.23275648453163
S         6.91219008043483   -1.09051491168626   -0.45503311125585
H         3.24142395764292    1.76011706080739    2.66028661735819
H         3.14517099524270   -0.02683020813448    2.68777349324113
H         1.79850706153271    0.99132036810905    2.00411182254350
H         4.62371773984492    0.42776906051961    1.10852555166323
H         4.19107141978376    2.88984371750127    0.73826331380392
H         2.66877366792470    2.53123051859633   -0.10436845541789
H         5.46081259512837    2.38830136217925   -1.13515419119995
H         4.02651091746647    2.77118357462483   -2.15256907818620
H         4.90534246461827    0.31889736006786   -0.72343662393691
H         2.05870022063762   -0.59364013952303    0.29386364801834
H         3.08980079344988   -2.26843055979044   -0.94674828734284
H         4.41114327906664   -1.94364317732303    0.16831206082207
H         5.77617422949500   -1.97792227272266   -4.48388514383639
H         7.50428097654264   -2.12210479645908   -4.79776658189433
H         9.27317426156793   -1.54297156568491   -0.62934711793785
