32
 energy: -49.231205175477 gnorm: 0.279664709466 xtb: 6.4.1 (79825abcba525fcdf90b791dcacef51065a7a4e7)
C         2.28847137059517    0.84905865733371    1.99124996387774
C         3.38866511450930    0.71363060819765    0.90568594554496
C         3.71724727538835    2.11792085825640    0.30157510286827
C         4.28636979512174    2.25615397108381   -1.17026616920410
C         4.39668590561968    0.65336201140593   -1.47833457712045
O         2.95409483884798    0.40490229956574   -1.35058632528265
C         3.06372936872024   -0.36278767975252   -0.12038103102490
C         4.02226939112364   -1.46617753431443   -0.62858794523240
C         4.76582174081920   -0.94610258097747   -1.89625112956278
C         4.03889702931326   -1.20517509820258   -3.20577476054343
N         3.37003449087225   -1.22729646668539   -4.27450002622474
C         6.19292562623813   -1.30685390919592   -1.93365892964852
C         6.90273772684735   -2.00773038247221   -2.89072191242262
N         6.42222223646934   -2.48460322471076   -4.05213389647115
N         8.22764517819877   -2.10846690630490   -2.64790569694111
C         8.54802278501570   -1.64613387869007   -1.46201491232364
S         7.24890190225430   -0.90546884730899   -0.62516609677600
H         2.29067294628550    1.84795215423451    2.44543601693933
H         2.38500824358804    0.10433238755979    2.79173968543105
H         1.36423205463983    0.72162525159120    1.41095740903446
H         4.28025984305202    0.45942546756220    1.47891852477229
H         4.47353295481276    2.64003985346351    0.89567966749015
H         2.76993054770171    2.68710810232958    0.29302049864644
H         5.28270374647302    2.71524399965855   -1.18709499775188
H         3.50596586798652    2.74225889860271   -1.77765917089514
H         4.95443972937870    0.52382412134692   -0.52957438521821
H         2.10086451854433   -0.80598470340328    0.16690241202807
H         3.52121162638981   -2.41454604995130   -0.84692049775181
H         4.77539279109947   -1.69753480248900    0.13500002087561
H         5.64906397897574   -1.93761709916246   -4.42133479607272
H         7.16024405665980   -2.73768477505074   -4.70294535958961
H         9.53435590861649   -1.62051768494155   -1.01830088486954
