32
 energy: -49.232290993467 gnorm: 0.274822210820 xtb: 6.4.1 (79825abcba525fcdf90b791dcacef51065a7a4e7)
C         2.34238155326940    0.76125984010398    1.94684114186796
C         3.43375485530965    0.73986650371517    0.84427009564311
C         3.57962529835802    2.14548542134236    0.17501339676656
C         4.42695233665253    2.28905744333580   -1.15568173565321
C         4.43730391364769    0.67753770489752   -1.43659959593004
O         2.99377406310555    0.40500488234756   -1.40391530979270
C         2.99306983603935   -0.32740822686944   -0.14759399623248
C         3.99965592655006   -1.43324041582408   -0.54566688573381
C         4.77472363357297   -0.94087718063361   -1.80549484305497
C         4.09493207406789   -1.01086044771075   -3.16320468887455
N         3.49649489417215   -1.09158167295782   -4.27018127797989
C         6.19767468834511   -1.30717615853157   -1.90142039748786
C         6.84784297423603   -2.06255356710644   -2.85939574347813
N         6.33084171467559   -2.57399382539553   -3.99002353051745
N         8.16574495504606   -2.24242582119301   -2.62430500413032
C         8.55531533619664   -1.63230667326280   -1.52944422051102
S         7.30395283550882   -0.85793112631018   -0.65134963518330
H         2.51527602557760    1.49425388317324    2.74490459205800
H         2.32620918267183   -0.23406055115995    2.40922210272299
H         1.34184671261820    1.00275541870388    1.56238444299099
H         4.30685847386172    0.47719202122186    1.44163865120475
H         3.97541024304572    2.81526150511051    0.94461770023777
H         2.52699208280412    2.40809170715237   -0.03583616037200
H         5.46044005253062    2.63755107323894   -1.03658706513951
H         3.92447742633908    2.90658697954024   -1.91754181860105
H         4.91015777839547    0.60487914680773   -0.43702706239780
H         2.00511241834836   -0.77150831075870    0.03345669846326
H         3.38979103953008   -2.31533377187281   -0.76499986759881
H         4.77472545315923   -1.59475134316694    0.21391791696421
H         5.37155155864850   -2.34794630023503   -4.23890447709257
H         6.93882453467804   -3.15196407272772   -4.56325063782072
H         9.55975236362415   -1.52722349809134   -1.14155874505137
