32
 energy: -49.231680000649 gnorm: 0.281159834907 xtb: 6.4.1 (79825abcba525fcdf90b791dcacef51065a7a4e7)
C         2.20669074540307    0.76904257255404    1.94873527204103
C         3.37060373278633    0.65327720465221    0.92936232331350
C         3.59594390950905    2.07796584415429    0.32568083177318
C         4.32241342351645    2.29610413436606   -1.06499645105446
C         4.47181547131844    0.69353681783826   -1.35735734079777
O         3.03612626247528    0.38169568234256   -1.38328869598297
C         3.02981655515894   -0.37408545314198   -0.14090076742404
C         4.06925585764343   -1.42833246009304   -0.59109139410386
C         4.82964253209686   -0.88989989720704   -1.84097958190343
C         4.10677026265452   -1.07519839594506   -3.16518137993241
N         3.48770077616914   -1.25079587521260   -4.24959764818785
C         6.25126997324040   -1.26053699488020   -1.93982254119908
C         6.88002177483418   -2.03669163167384   -2.89548239409940
N         6.32263045983904   -2.55610046252316   -4.00305181703837
N         8.18444640139038   -2.27898071024287   -2.64198739812560
C         8.56131148986952   -1.61162847862751   -1.57646203528280
S         7.37029800824716   -0.70032976939967   -0.74722307829184
H         2.45696902194632    1.52730822025449    2.70137863269564
H         1.91684732413004   -0.19947290100689    2.37615654915236
H         1.29692415133450    1.15556418664013    1.46902408660293
H         4.26428836803477    0.42267867861689    1.50928395305046
H         3.98907979944997    2.78918494013152    1.05858469906813
H         2.58396585246320    2.41612076650757    0.03756983730449
H         5.32401641077173    2.72182066794502   -0.92612565470152
H         3.64993997986252    2.74059729650994   -1.81630188135767
H         4.94595813837413    0.47350236446114   -0.38022435937697
H         2.04207547628294   -0.83876977763413   -0.02048424734914
H         3.54268023033765   -2.36909789132162   -0.78032495333315
H         4.81884167378128   -1.67004654765403    0.17276921290255
H         5.35649299767934   -2.38476282524669   -4.26856759887399
H         6.86105079933126   -3.02964163782527   -4.72287424360403
H         9.53411458008900   -1.64254698603899   -1.10413846697935
