32
 energy: -49.231444166952 gnorm: 0.286493104687 xtb: 6.4.1 (79825abcba525fcdf90b791dcacef51065a7a4e7)
C         2.46377308907954    1.25829075538946    1.90475811098610
C         3.53711347533103    0.99134396881331    0.81668821427348
C         3.44486296446603    2.27649464120192   -0.06921519452609
C         4.17468215852226    2.22807320124703   -1.47432902489882
C         4.29292124580518    0.59800686145727   -1.54447957224321
O         2.87635102321864    0.29702239994183   -1.29576691684313
C         3.10409986588231   -0.24142888045630    0.03576355040520
C         4.03852132471187   -1.41496981003635   -0.34397404553896
C         4.75989216059689   -1.02538532653084   -1.66993258646803
C         4.03869755820507   -1.65532884735148   -2.85037308715982
N         3.53916405019873   -2.19515062656384   -3.87462836598128
C         6.18972055728962   -1.33388023841472   -1.83901250100856
C         7.02513485498976   -1.33440606254723   -2.94042671907751
N         6.74434321917259   -0.86488664681946   -4.16838772023255
N         8.28590128481175   -1.79742577584853   -2.79701098525476
C         8.47774169531277   -2.15192242326015   -1.54790731512493
S         7.10334683086608   -2.00655459899619   -0.53473277480266
H         2.54268570218171    2.13551148103240    2.55923090202933
H         2.38599474197933    0.38570696466577    2.56602087014834
H         1.48868171593277    1.38363460230250    1.41416380865996
H         4.51176916577472    0.96703323937972    1.30414311183273
H         3.82197267990496    3.13619993951425    0.49312951368610
H         2.39072910732265    2.49274622123968   -0.32119405961776
H         5.12160870411900    2.78112769451382   -1.50881159660954
H         3.55508812091854    2.59377266131714   -2.30896767929928
H         4.86262516891492    0.62346244118195   -0.59431919165110
H         2.17356679941769   -0.67803084307373    0.42248184372397
H         3.44580913991787   -2.32648963876754   -0.47028594778399
H         4.82992447709009   -1.51548740255640    0.40926223228788
H         5.79424663961590   -0.82581342900818   -4.52764610691321
H         7.52951248205599   -1.03227494356937   -4.79110147970225
H         9.34145197859264   -2.64555933329008   -1.12279732147482
