32
 energy: -49.233402030583 gnorm: 0.278412187117 xtb: 6.4.1 (79825abcba525fcdf90b791dcacef51065a7a4e7)
C         2.18568137515776    0.89172187828531    1.87277947656642
C         3.39883517591846    0.71984798507907    0.92097409176523
C         3.67053363847872    2.08977295670824    0.21781495432370
C         4.32122633564769    2.24373630513923   -1.21822817563512
C         4.46172552408293    0.61914855422764   -1.34858335421359
O         3.01727848974779    0.35623239101885   -1.28884485181413
C         3.04912020503238   -0.40102285623476   -0.04774723393012
C         4.04300491301417   -1.49567871662468   -0.50432597377553
C         4.76261099692395   -0.98807872160963   -1.79072689096508
C         3.99015695179309   -1.21822267379627   -3.07942342184957
N         3.47898519382544   -1.25360232063041   -4.23159174940582
C         6.17459143013652   -1.38724492166058   -1.91378763845699
C         6.92484608168400   -1.87076493197449   -2.96941870035367
N         6.44377027620464   -2.36796315968845   -4.12204206438780
N         8.25091523961757   -1.99931712494733   -2.74692773272220
C         8.54813759852465   -1.58150737228671   -1.53869577155575
S         7.24125720327055   -0.95598839636500   -0.62359723053636
H         2.32074841052827    1.68587673963296    2.61786536978494
H         2.01846734366994   -0.04902161433355    2.41292901908325
H         1.32431937401220    1.15517889819624    1.24361897492806
H         4.28113410466947    0.50478493419858    1.52384512898954
H         4.33115185967723    2.61087555877785    0.91750928252020
H         2.76921720144721    2.72506038989432    0.29194214329386
H         5.27724162716805    2.77992378824504   -1.17062617305769
H         3.69605495971523    2.64929594907668   -2.02997732146413
H         4.92108893070105    0.46547888659016   -0.35189574843366
H         2.07240316638588   -0.86116143213670    0.15315178350640
H         3.51232039112241   -2.43973877352838   -0.66324536139914
H         4.72701303254847   -1.63114398318768    0.34276886953156
H         5.55699971675480   -2.10654855601429   -4.54462600697264
H         7.16658409802129   -2.70086856771619   -4.75370352633612
H         9.58757941701203   -1.57650195428418   -1.23881744545730
