32
 energy: -49.231591940450 gnorm: 0.281829716715 xtb: 6.4.1 (79825abcba525fcdf90b791dcacef51065a7a4e7)
C         1.99502472943691    0.60918421190983    1.87463817512359
C         3.24459332905087    0.48073993434830    0.96398091124765
C         3.67813274573590    1.94760746718553    0.63949598093561
C         4.64962435618975    2.25070377158542   -0.57444893069230
C         4.50748067339635    0.75917176797036   -1.23106548229234
O         3.04324453491955    0.67490707563929   -1.32069144835940
C         2.95201289230844   -0.34059377708359   -0.28376931769676
C         3.88482641335788   -1.43010715402109   -0.86459799222273
C         4.77876409957955   -0.75188711191342   -1.94682300578325
C         4.18999471140421   -0.94636536684481   -3.33459786372045
N         4.00986845691306   -1.17169625073485   -4.56212410261201
C         6.19938396363176   -1.12093399276287   -2.06433878277741
C         6.71668180203266   -2.27790455037033   -2.61647342709801
N         6.08872280367304   -3.36235647733978   -3.10310691030011
N         8.06470606566282   -2.33928903192974   -2.55689286423637
C         8.56333947850603   -1.32301790816194   -1.89259751163186
S         7.43821867910106   -0.15017723523738   -1.34930786481598
H         2.22580641905822    1.12749755298457    2.81387676480757
H         1.70597320348611   -0.42301486639704    2.11072006286009
H         1.17544048539568    1.12526813080507    1.35585489613890
H         4.01675658529294   -0.07275406283839    1.49836401749197
H         4.23167384994736    2.35871931917375    1.48926995060540
H         2.75551510046026    2.52007303939592    0.43330157761936
H         5.72342237145997    2.33668716217753   -0.36637950344995
H         4.26253851945161    3.07039088248605   -1.20097278504660
H         4.93666706439091    0.44217080305205   -0.25981642935083
H         1.94209287779728   -0.76992932376282   -0.24138240301086
H         3.34149902492776   -2.24941794466542   -1.34590455378429
H         4.56609709325148   -1.83176159683229   -0.10411683494623
H         5.20986527897450   -3.19474720087781   -3.58559359044442
H         6.72515396210337   -4.00790648746322   -3.56191253616651
H         9.60969475377101   -1.27357130898554   -1.62225138004337
