32
 energy: -49.228007930575 gnorm: 0.279742938091 xtb: 6.4.1 (79825abcba525fcdf90b791dcacef51065a7a4e7)
C         2.08138037528075    0.85461082304094    1.82477969380974
C         3.33750583521472    0.72207078989175    0.92378122486191
C         3.57294307860868    2.12453443780779    0.27369486208195
C         4.48411727885403    2.26286139126932   -1.01469669393583
C         4.53991694913453    0.65141249319252   -1.29062549956510
O         3.08733236415318    0.44246611645655   -1.36451912154587
C         3.04367526939573   -0.33194685684283   -0.13441696813848
C         4.03359879823461   -1.45379891848219   -0.52943820824721
C         4.81314986750935   -0.94683442225898   -1.78067964975943
C         3.95692477575238   -1.08522905853503   -3.02892472688692
N         3.33484493119513   -1.37537382154468   -4.08669258044339
C         6.20333274292863   -1.41729764058639   -1.89993694912319
C         6.91411934588801   -1.94612964520680   -2.96113896573062
N         6.42609996194843   -2.44103256666499   -4.11182954976214
N         8.24836025263884   -2.07400169029324   -2.79399453364634
C         8.60716449019828   -1.55629768453700   -1.64248566427900
S         7.33376689996530   -0.91269992788921   -0.69335121542477
H         2.22425939255926    1.65501329523051    2.56167826598536
H         1.81553339781020   -0.13877500672636    2.20848577630501
H         1.25395777869441    1.23388315767581    1.20937626643701
H         4.16336079466240    0.54142250314900    1.61188498654664
H         3.95634040450362    2.68843125036427    1.12959402925387
H         2.53621570264351    2.43287783349835    0.04658919990711
H         5.47371680664971    2.63601441501719   -0.72284432878230
H         4.11264186300423    2.83567153341329   -1.87965282365597
H         5.03030990710934    0.46195772833816   -0.31510669918174
H         1.99421094706190   -0.63435644487330   -0.01936403679690
H         3.47625514398295   -2.35706779800181   -0.79702784760964
H         4.77412920550864   -1.70315611521745    0.24077171817272
H         5.43532158972236   -2.64488873305919   -4.21221727280007
H         7.03618365320760   -2.95925985808117   -4.73754545848054
H         9.66143125807531   -1.35385006135922   -1.50859054948981
