32
 energy: -49.232651502831 gnorm: 0.276821310914 xtb: 6.4.1 (79825abcba525fcdf90b791dcacef51065a7a4e7)
C         2.19910165786911    1.02954876824269    1.77676858596889
C         3.38044990475839    0.81544809648377    0.79402065602072
C         3.67700180904204    2.16690012253049    0.06561029953666
C         4.56372226320943    2.19168064894680   -1.24680668138337
C         4.54385742922750    0.57364567351990   -1.48677766525065
O         3.08439563076403    0.40621530015599   -1.51932243126931
C         2.99576379481967   -0.24883447073053   -0.22401285583848
C         3.99353425913588   -1.41815573459649   -0.40201370205695
C         4.79902181916479   -1.08787151814329   -1.69523453593805
C         3.87043155072964   -1.44423388378924   -2.84463273721687
N         3.03505840068445   -1.76325620841119   -3.73368650413570
C         6.22254414830917   -1.43237679402345   -1.84711161918862
C         6.97490258215951   -1.56027437377495   -2.99977357929771
N         6.47767048960922   -1.52280388537469   -4.24818731154888
N         8.29806461366257   -1.71918224274581   -2.77959673997679
C         8.61166146224282   -1.81254804976922   -1.50850648590800
S         7.26696506099058   -1.56347692819791   -0.47585414357692
H         2.44989254663988    1.65729018222397    2.64113117409331
H         1.92507089552995    0.05712251969805    2.20573794652539
H         1.28466504974522    1.43411892267496    1.32143824974811
H         4.20800092832637    0.43710672591639    1.39416573474187
H         4.07233692076665    2.89512432686466    0.78040828942177
H         2.68641066466841    2.54769337613628   -0.24290544797330
H         5.58811792912232    2.51893908256989   -1.02945064405618
H         4.12505047648646    2.72815120873195   -2.10355690947662
H         4.92379936324616    0.45871215145553   -0.45215227009735
H         1.94586596636581   -0.49400094562655   -0.01503427201476
H         3.47116453348446   -2.37124597120251   -0.53193559789275
H         4.68969931699121   -1.49838652281777    0.44220478599970
H         5.48299180992118   -1.32116860777642   -4.30505869757615
H         7.00068174053869   -1.83778611947429   -5.06030026935817
H         9.59933935330821   -1.94019811413238   -1.08590832922529
