32
 energy: -49.229251350412 gnorm: 0.288124284824 xtb: 6.4.1 (79825abcba525fcdf90b791dcacef51065a7a4e7)
C         2.42874184474055    1.02330352642635    1.90465529896893
C         3.47700620829545    0.76457134372456    0.79046691542223
C         3.72298359814787    2.15690417560547    0.12274566567476
C         4.45792821749633    2.17274126422809   -1.28044041091694
C         4.41338935076437    0.54729185649306   -1.45918153130939
O         2.96074429952585    0.32693003981069   -1.43958929590256
C         3.00665363181693   -0.33836253132473   -0.14728483092933
C         3.93937735047603   -1.52766301047434   -0.47914813941258
C         4.70463818766572   -1.09292416952957   -1.76588665117740
C         3.87479552085599   -1.35287462551304   -3.01255307371321
N         3.23632884630846   -1.50353498492711   -4.08944764227785
C         6.12998473743762   -1.43638489496980   -1.90222563175924
C         6.97436271124689   -1.75628745310250   -2.94899150623570
N         6.55961984653010   -1.88534102223225   -4.22119989172907
N         8.29579509729374   -1.81631548749512   -2.67567776658076
C         8.50917721990469   -1.62392530024393   -1.39498081591044
S         7.09315256813353   -1.35086655344226   -0.46927632587998
H         2.85301502360048    1.81705458532448    2.53237304051665
H         2.37452976188003    0.15793301670244    2.57764512862550
H         1.44726825074843    1.37572868253249    1.55867389924882
H         4.35754916410616    0.54282197997354    1.39348294124950
H         4.26337020431805    2.86996192852674    0.75287856117403
H         2.70839643282206    2.55417263648588   -0.06231361594952
H         5.47998181764171    2.57156597694021   -1.28901339665232
H         3.84781557552434    2.72081476052114   -2.01639731187146
H         4.97368406867825    0.47515434154553   -0.50582886715736
H         1.97705105667861   -0.66897806567805    0.04422497326554
H         3.44310219523955   -2.49342798623743   -0.61749484742046
H         4.66511383304946   -1.54176287127165    0.34358837802417
H         5.75438688286539   -1.36492661306046   -4.55890617219795
H         7.29342483407826   -1.92183532892163   -4.92296940049163
H         9.49788385205400   -1.79959529660160   -0.99250024864035
