32
 energy: -49.228536822442 gnorm: 0.295971551408 xtb: 6.4.1 (79825abcba525fcdf90b791dcacef51065a7a4e7)
C         2.22607536235437    1.16657521034821    1.89723931111241
C         3.36406638228566    0.90965743731414    0.87440698512100
C         3.56667991337969    2.23497999526774    0.06978587432978
C         4.27000591386555    2.21988817767317   -1.34952041661131
C         4.38699034054629    0.58860250683230   -1.38472803362527
O         2.94370625453471    0.32759545786350   -1.29569322162590
C         3.06201502004749   -0.30513367323402    0.00831198737132
C         4.03200568728071   -1.45018777183263   -0.36919514182327
C         4.77957150652415   -1.03385672988392   -1.67231900944005
C         3.92669539469167   -1.33012614917207   -2.89510968460691
N         3.31740405569956   -1.72767858549876   -3.92503991477074
C         6.19795829718074   -1.37001215301435   -1.88051315902847
C         6.98553331746446   -1.56618785100687   -2.99956243233455
N         6.70818194566381   -1.58357947113437   -4.31483973517114
N         8.25962698901260   -1.98601597285697   -2.84171129423867
C         8.57899636465426   -1.97422108333982   -1.56868549851979
S         7.28281119973483   -1.52160988952145   -0.54317936919657
H         2.39741121776914    2.17371681316982    2.29772383397519
H         2.22269943580404    0.35957778401635    2.64119101427070
H         1.26263098207007    1.28583226974695    1.38270095969379
H         4.25787080993565    0.75546742521851    1.47896971102175
H         4.09952017114987    2.93088254943163    0.72502430737965
H         2.55199258095313    2.61912301677704   -0.14068987399202
H         5.27729597696438    2.65140809594891   -1.29580356711935
H         3.61041376509853    2.56906864434865   -2.16023969751922
H         4.87378601528423    0.54525782549794   -0.39015953490639
H         2.05637870556806   -0.70033971004571    0.20470926439471
H         3.48386637618567   -2.35653344620700   -0.64525971306214
H         4.79053492222367   -1.67413087001479    0.39124585718658
H         5.77923637102761   -1.50660556771951   -4.72031716799130
H         7.37856752836417   -2.07480138228440   -4.89927642112919
H         9.55275002913539   -2.25699691652750   -1.19154760898388
