32
 energy: -49.235498589429 gnorm: 0.278403333517 xtb: 6.4.1 (79825abcba525fcdf90b791dcacef51065a7a4e7)
C         2.47464993179619    1.36245143692507    1.79761834138915
C         3.55508793350604    1.03325909471954    0.73389732720905
C         3.75453613421253    2.25967329339094   -0.21535284090273
C         4.33892347520401    2.04970050558180   -1.67265460476064
C         4.37149993040822    0.41855177694979   -1.55302828736686
O         2.93804920460325    0.20014649346155   -1.31503883636470
C         3.08242624411651   -0.24768585208402    0.06096049567591
C         4.01614121704318   -1.44060935842177   -0.25471697504689
C         4.66916267616684   -1.24572764264831   -1.65682327563407
C         3.89027474004804   -1.82351999659200   -2.82724192559280
N         3.54138067343156   -2.35423066085075   -3.91658083594288
C         6.10881856154358   -1.52968704689265   -1.77898853803806
C         6.87813556406713   -1.21649547649375   -2.88401930527509
N         6.48054718976845   -0.46109990758669   -3.92251902250670
N         8.19443375127962   -1.46700708927729   -2.71346041963998
C         8.46576020951161   -1.91727229637222   -1.51080760622736
S         7.09933312336369   -2.14194082801167   -0.50134400285985
H         2.66631306389903    2.24607859952631    2.41934683291571
H         2.30868669099932    0.48908844644494    2.44136803579637
H         1.55655630398751    1.60875975834430    1.24658899870374
H         4.46588105410244    0.87678971622942    1.31193731492478
H         4.37553242292906    3.00374108143470    0.29284322712227
H         2.72449143026608    2.64638042329916   -0.31986018988266
H         5.31938845199212    2.50885275545475   -1.85040680622203
H         3.62804508774574    2.37953779635646   -2.44732474692165
H         5.01320845875313    0.46333509644302   -0.65068693822503
H         2.11485551520704   -0.64035220997479    0.40108416783730
H         3.42993710114722   -2.36156732983306   -0.17514327705828
H         4.75860816275444   -1.52658067808054    0.54848871688838
H         5.57191408250021   -0.60946310337063   -4.35339145579434
H         7.26351658907616   -0.37179701982086   -4.56381922849318
H         9.44545589798209   -2.30032507841690   -1.25810564113414
