32
 energy: -49.228403103631 gnorm: 0.274622381849 xtb: 6.4.1 (79825abcba525fcdf90b791dcacef51065a7a4e7)
C         2.69281114321749    1.19254992579046    2.00541294827820
C         3.59682686047171    0.94950642411082    0.76811681970278
C         3.57921532411295    2.25273239059662   -0.09573453891096
C         4.28542295934047    2.19716010138058   -1.51260011626081
C         4.33859014994533    0.56246097686351   -1.48178033174460
O         2.90064919648913    0.28042209500833   -1.37268995056637
C         3.08011906255820   -0.24115081174242   -0.02713245588213
C         3.96408465224513   -1.44899798834528   -0.41988230835028
C         4.65752931911515   -1.07672941007380   -1.76556748388584
C         3.93469863692559   -1.58137381012700   -3.00380820014951
N         3.62835093786310   -2.24564498406173   -4.03090850487411
C         6.07345455238248   -1.46929376092466   -1.86156391334287
C         6.92893414385925   -1.42657256377874   -2.94662619680726
N         6.62488522550388   -1.02551779614800   -4.19317742397256
N         8.22687562400142   -1.62853178570005   -2.63190775768164
C         8.45059295015962   -1.86105260770650   -1.35965966320339
S         7.00148914960953   -1.81986806976603   -0.44586663250209
H         3.11058928228550    1.95612930745538    2.67360902031281
H         2.56402734806017    0.27692628791266    2.59682521345431
H         1.69575225083547    1.40708759745151    1.59670255217269
H         4.56921800796666    0.72479922785682    1.20643078869603
H         3.95628231173829    3.02545875132874    0.58120782642886
H         2.52435380886021    2.41760492811255   -0.38128753411714
H         5.23833957863559    2.73149098239959   -1.61343971242384
H         3.58242535805346    2.56071505888709   -2.27933130327700
H         4.95896229237332    0.55028155030854   -0.56362709984694
H         2.11010252952895   -0.53333652434287    0.39684812412663
H         3.32344758913836   -2.31494811347566   -0.61442115791027
H         4.71886330363430   -1.75415943743421    0.31562656053177
H         5.65148845829020   -1.19390033708051   -4.43280811704568
H         7.35160653162811   -1.06067064331939   -4.90234768183319
H         9.36676777553989   -2.16283728042760   -0.86982187736893
