32
 energy: -49.228561224574 gnorm: 0.281823772122 xtb: 6.4.1 (79825abcba525fcdf90b791dcacef51065a7a4e7)
C         2.33835347562207    1.20217769572965    1.86593070049772
C         3.44088760716014    0.85628624387060    0.83055933549420
C         3.64724122522274    2.20906990603424    0.07402658392127
C         4.37335437847962    2.18892320861756   -1.33369475510703
C         4.40083980460603    0.55782629115153   -1.45528941521511
O         2.94517640603588    0.39178059889475   -1.34306763847702
C         3.01685225345262   -0.29895536067395   -0.06536692686692
C         3.95557598233651   -1.47098595014073   -0.43911078770543
C         4.73860815553110   -1.07930767629004   -1.72898161393061
C         4.05136336088934   -1.48637106438096   -3.02218857207983
N         3.49358068450629   -1.89353623521492   -4.07724077585326
C         6.18253599127573   -1.36596932608988   -1.76159871566338
C         6.90354277655795   -1.44097012821291   -2.93869459593880
N         6.49677351875611   -1.20317863183097   -4.19773177617221
N         8.21877095292582   -1.70470431144912   -2.78024444776634
C         8.50818678290411   -1.92479353224387   -1.51908236133758
S         7.19846243929791   -1.77522117631284   -0.42415498829346
H         2.47297297847126    2.23511878137321    2.21087756528531
H         2.43819093803629    0.56126871569180    2.75136197399510
H         1.30119371189791    1.02694133574308    1.54845805969889
H         4.33160743757263    0.55316263804537    1.38091491822471
H         4.15012750027763    2.87032428565779    0.78633589028954
H         2.63763130298543    2.53889480171221   -0.23152149202367
H         5.41533763453658    2.51989543903557   -1.42565391674728
H         3.78556501024410    2.65374259124586   -2.14159397630023
H         4.97305014230910    0.46478041392860   -0.51086732309423
H         1.99669517377354   -0.58116717095364    0.22737890957206
H         3.42856887172706   -2.40171304475000   -0.67179386042109
H         4.70094033724843   -1.61321970114490    0.35334688489763
H         5.62156411955176   -1.51649573491885   -4.60897101818878
H         7.20842435108952   -1.33612061615627   -4.91058629130973
H         9.52706618110158   -2.18501539085187   -1.26499435204213
