32
 energy: -49.230996268761 gnorm: 0.279904601410 xtb: 6.4.1 (79825abcba525fcdf90b791dcacef51065a7a4e7)
C         2.41133429124939    0.72597152962608    1.98311989975127
C         3.52225140822899    0.69087287976395    0.90060083965910
C         3.67872081490190    2.11826560502415    0.28171911443618
C         4.32881752335585    2.31063551427656   -1.14995600809559
C         4.39327819521666    0.70776421951707   -1.47037181917841
O         2.95314972074257    0.43138952780465   -1.37673508692804
C         3.07153031633116   -0.32449607925438   -0.14004770324323
C         4.01002499149816   -1.44946624469265   -0.63825678541607
C         4.74172551269107   -0.89385020992911   -1.89771030781217
C         3.98854056232824   -1.08137041184965   -3.20459165502851
N         3.38657916435379   -1.27863153074370   -4.29489925936070
C         6.14460001805726   -1.33211333054284   -1.98734807862797
C         6.92471574511195   -2.00289243887709   -2.91066028908251
N         6.50870290555794   -2.73228268250794   -3.96047161880469
N         8.24402300266559   -2.01881221311578   -2.62141603731922
C         8.50011586965139   -1.43472203574804   -1.47425183762817
S         7.12058527179054   -0.84471447717743   -0.64636168346172
H         2.59701806896596    1.23504063364796    2.93729400240412
H         2.15530573663662   -0.29806940441407    2.28396857333724
H         1.52308073201709    1.22034207326721    1.56622612974382
H         4.48599607953110    0.43038136208217    1.33820497821140
H         4.33069719726299    2.57407406319887    1.03318565081879
H         2.68388183758663    2.59852730643694    0.31489124206005
H         5.37076279952228    2.64936437697318   -1.09215454551306
H         3.77830316832039    2.96042570877117   -1.84921361059055
H         4.93305419431858    0.46260470676042   -0.53412720364049
H         2.08238449433932   -0.75172126009600    0.07239826007835
H         3.42450135658775   -2.34583836952306   -0.86587470438850
H         4.71626420779414   -1.71865088859229    0.15707548357354
H         5.59310146794261   -2.49594132948906   -4.33342414632622
H         7.23200972644389   -2.89516565400396   -4.65515026241887
H         9.44408328017442   -1.41463827971013   -0.94612919176091
