32
 energy: -49.226265498339 gnorm: 0.283067707074 xtb: 6.4.1 (79825abcba525fcdf90b791dcacef51065a7a4e7)
C         2.21327547269334    1.34235744041914    1.78088151066788
C         3.34768738536550    1.02619885081375    0.77074803998280
C         3.37788782019929    2.28872152349678   -0.15124528440664
C         4.27691182881405    2.14084322676520   -1.44708995442776
C         4.46392440650657    0.51747847592942   -1.37138630874073
O         3.01842710379070    0.25423114284004   -1.35243312450037
C         3.11611894684658   -0.26686703711951    0.00170338689349
C         4.18053868142537   -1.36944341241713   -0.21248899470903
C         4.83492619043756   -1.11866485230140   -1.60504243907380
C         3.97513177982989   -1.56649521136155   -2.77576520037687
N         3.38261436687759   -1.88235750987070   -3.84309563916719
C         6.25704060566157   -1.45504442856867   -1.78561299485522
C         6.97017951752789   -1.33364009951161   -2.96363017591683
N         6.62031032791703   -0.72868668654444   -4.11202190207714
N         8.24525063854085   -1.77025564048853   -2.87392051171780
C         8.47627338987457   -2.33438048252712   -1.71154267042178
S         7.25454276848380   -2.10460501059629   -0.53205412880091
H         2.45845922853473    2.26297478817206    2.32533229928945
H         2.18268425150653    0.50865806808617    2.49413456068909
H         1.28509520186512    1.46787156279614    1.20649085515707
H         4.23846253223647    0.94808597185197    1.39410589794148
H         3.79040076477811    3.16156536631739    0.36403445020146
H         2.31898885977282    2.58797059516246   -0.25439210315579
H         5.24651002016404    2.62468879575504   -1.27533134054437
H         3.77816526599169    2.47792093165286   -2.37006613828505
H         4.94577540124690    0.52854532631551   -0.37353239590505
H         2.17147052273244   -0.71222833794293    0.34134549916035
H         3.70205792440142   -2.35335526930504   -0.24572229779495
H         4.90174891610206   -1.47449164738864    0.60763799710229
H         5.62948993583088   -0.54635447083537   -4.24732426476167
H         7.17538681460160   -1.06594942863745   -4.89331952459368
H         9.48747446816358   -2.67824105977090   -1.53942746734861
