32
 energy: -49.233441432328 gnorm: 0.279874022702 xtb: 6.4.1 (79825abcba525fcdf90b791dcacef51065a7a4e7)
C         2.56024262127464    0.89859041487145    2.01020878415951
C         3.57595126750918    0.69214560106164    0.85568171369152
C         3.78598622800143    2.11055853059924    0.23203330753529
C         4.38941311994403    2.24864673979040   -1.22609330067641
C         4.34108806091502    0.62989419304622   -1.45701047569617
O         2.89041406398211    0.44864406312258   -1.30931426506343
C         3.03287357613931   -0.35539314833076   -0.10598465464554
C         3.90888658529593   -1.50953184648653   -0.64922262256027
C         4.66629591737468   -0.97199450840041   -1.90130197828815
C         4.03814924874924   -1.25037880478189   -3.25715012251528
N         3.50629171973518   -1.43931013116995   -4.38474608932744
C         6.10034970639321   -1.30191776741766   -1.95428073313735
C         6.90073402996850   -1.81145047217473   -2.95966223059594
N         6.62804544169041   -2.15388063193465   -4.23071028441313
N         8.18143331810934   -1.97640173352856   -2.56331928063214
C         8.37817443683461   -1.64593318111441   -1.30840332276950
S         6.99833936364851   -1.02611628383938   -0.50310966082740
H         2.88634387188570    1.76072157063384    2.60557915729714
H         2.65522860847752    0.03210380505362    2.67721627822538
H         1.54414627978698    1.07273124746228    1.63018216599731
H         4.47658026050855    0.35708832429071    1.37023107239621
H         4.53395819507605    2.58387072923671    0.87550048518038
H         2.83493532335552    2.67346326563049    0.22219869725323
H         5.39853368535623    2.67552774282833   -1.16973285467883
H         3.72766409404588    2.76017904870330   -1.94350355632294
H         4.86361116669652    0.50082214457249   -0.48833854953946
H         2.02210568857453   -0.65027053957749    0.20620070719756
H         3.20267170820869   -2.25909022402032   -1.02010483855721
H         4.63767545440908   -1.91399006763011    0.06426735797353
H         5.63598980926748   -2.30932010570444   -4.38863751105741
H         7.30699883926438   -2.74491315718228   -4.70186299115122
H         9.34958930272144   -1.64939297798654   -0.83223891107267
