32
 energy: -49.228884419722 gnorm: 0.284127946010 xtb: 6.4.1 (79825abcba525fcdf90b791dcacef51065a7a4e7)
C         2.43499462518175    1.10217081763206    1.90468229183517
C         3.47543419446526    0.88529874161405    0.77434239769612
C         3.55709472667450    2.21637981782663   -0.04205332877923
C         4.37645089195183    2.14610548060026   -1.39595234986300
C         4.38526608979445    0.51412807229610   -1.50815693397444
O         2.93998471664244    0.27444016574593   -1.39487726114489
C         3.01318968511083   -0.30025903623296   -0.06103523076382
C         4.01406898800752   -1.41818103063092   -0.43923286187204
C         4.75803180631679   -1.11643634819955   -1.77556645610283
C         3.95700785800696   -1.73360069798782   -2.91040522098867
N         3.19434923797213   -2.10892582584354   -3.84181437380996
C         6.18171522334581   -1.48979884326627   -1.81906724217764
C         6.97612775667470   -1.42442147580974   -2.94852070681718
N         6.53713929073488   -1.11104827694713   -4.17988864750818
N         8.30427627459986   -1.55083753774506   -2.73750457143201
C         8.58404011597242   -1.77600114569126   -1.47506085577330
S         7.21264449962459   -1.71268543713686   -0.44944841417791
H         2.89620550767616    1.64873683122546    2.73692513561699
H         1.98242682456053    0.14869759710692    2.20599870894233
H         1.59348515917002    1.71379698689060    1.55116810124292
H         4.45043537860874    0.81085830318846    1.25599405156856
H         3.90500916661297    3.04337156259988    0.58450608914982
H         2.53891818521349    2.47941512400594   -0.38203162397467
H         5.40852860989396    2.48482092254690   -1.24162918762081
H         3.81671559888885    2.59697164793589   -2.23121916168309
H         4.94256837980263    0.39921648465125   -0.55724958906031
H         1.98243769441541   -0.58684726677580    0.18691963732248
H         3.45335918565176   -2.35762990538230   -0.40501070972016
H         4.79752331905812   -1.53136123087030    0.32048891520986
H         5.54864898206253   -1.07657640059970   -4.41435701056730
H         7.10937557549743   -1.26985046592570   -5.00427298303249
H         9.60877025670445   -1.82680047521097   -1.13192979476298
