32
 energy: -49.231814957403 gnorm: 0.287802819376 xtb: 6.4.1 (79825abcba525fcdf90b791dcacef51065a7a4e7)
C         2.32115989397496    0.70658936829659    1.99644148363626
C         3.41072291420865    0.54111904483533    0.90433880238713
C         3.72700176985625    1.98503831157014    0.39442499314980
C         4.51653854571174    2.24155456654315   -0.95470682515793
C         4.39321647005148    0.66004928833310   -1.35426981874934
O         2.93566018163631    0.47398916092912   -1.34860243763245
C         3.01603555054596   -0.42222370419685   -0.20618613840705
C         3.96891238676740   -1.51126877132215   -0.75440962298123
C         4.76510360385703   -0.88536570802408   -1.93958593655552
C         4.07908447309137   -0.91370377974582   -3.29567035523024
N         3.45827687381192   -1.02548159620760   -4.38752372742705
C         6.19432107050821   -1.22245319426520   -2.04856218455711
C         6.90378188113370   -2.15404706730008   -2.78329261834207
N         6.30006339881484   -2.97963466850315   -3.65570865773115
N         8.21872543166360   -2.23276052952898   -2.48460388122769
C         8.51238440377257   -1.42831365627218   -1.48993799327086
S         7.24997119866517   -0.40117062797788   -0.95336945521719
H         2.57082207715501    1.32567986657908    2.86734548809909
H         2.07329784893955   -0.29240237369916    2.37762422920384
H         1.43213677014599    1.10941314807471    1.49189423824346
H         4.26487312418208    0.15274311574840    1.45908970160152
H         4.26864772139190    2.49266474689420    1.19845955361406
H         2.75809881030891    2.44853784445137    0.13394174625970
H         5.56438816427301    2.53505189227457   -0.81471145174233
H         3.96458709414039    2.92690059089705   -1.61796014999331
H         4.96229285933545    0.29425755359276   -0.47656612936996
H         2.01911204769008   -0.85937456652385   -0.06090451111197
H         3.33334646527809   -2.32399456738505   -1.12000990677192
H         4.65553881598324   -1.84190665870318    0.03490042569101
H         5.35202445792644   -2.74713623857099   -3.93933422431887
H         6.91936673341616   -3.38269734824785   -4.35305067726430
H         9.53472182079173   -1.31000638719858   -1.15643993548022
