32
 energy: -49.230798032068 gnorm: 0.275424013700 xtb: 6.4.1 (79825abcba525fcdf90b791dcacef51065a7a4e7)
C         2.77129837077750    1.36599456998665    1.89761645009596
C         3.58576091999386    0.99140367760278    0.63130342121023
C         3.56947016187852    2.19330834115891   -0.36875009948189
C         4.23981162351988    2.02467249509350   -1.79406755343013
C         4.34296970890720    0.40011221851387   -1.63226469785468
O         2.92496275696416    0.10918608075046   -1.37979866448645
C         3.12828493699570   -0.31426752493994   -0.00352840200054
C         4.03681217548932   -1.53294009840881   -0.29328316690202
C         4.69297372339674   -1.25651329736213   -1.68013508019659
C         3.91228329506306   -1.78265463740393   -2.87348665367427
N         3.29420030352047   -1.92986452886959   -3.96268030072416
C         6.12040628751258   -1.60052653990012   -1.79084872500059
C         6.97947996163108   -1.07194271781489   -2.73616463054862
N         6.54196944151392   -0.37974653870429   -3.80229296810543
N         8.29365533682700   -1.27536455871975   -2.49941592716594
C         8.42549655229424   -1.92839478598723   -1.36853131319366
S         7.00650777527006   -2.30745322089192   -0.48569426603308
H         2.99958159886869    2.38970030323631    2.22009338766721
H         3.10245594579664    0.68034901883504    2.68815121721083
H         1.67851400593318    1.29693083682380    1.80678932354658
H         4.58540393007979    0.80411670999585    1.02346977211133
H         4.05029895253421    3.02968784952776    0.14778595938824
H         2.52716601004266    2.47253353369543   -0.60768864671177
H         5.26347797456427    2.39566057607262   -1.92898698419271
H         3.55832208535526    2.45129606697040   -2.54760513058098
H         5.04869128872499    0.44681112581502   -0.77915769555643
H         2.15342210087299   -0.60598224732314    0.40952010298865
H         3.33388992025513   -2.36537228785698   -0.39858169281526
H         4.74150178053827   -1.77757076367708    0.51130120506324
H         5.55905098908572   -0.50493269927154   -4.02917742524859
H         7.12692645364918   -0.30312780345162   -4.62947910031854
H         9.41373116186325   -2.10521405362878   -0.96539527816568
