32
 energy: -49.228362511505 gnorm: 0.279649232529 xtb: 6.4.1 (79825abcba525fcdf90b791dcacef51065a7a4e7)
C         2.39080812244676    1.26807110730179    1.87106768290886
C         3.42708452895026    1.05479397555072    0.73622833562404
C         3.43608362555192    2.30806141289681   -0.19875134350694
C         4.09435251419044    2.12983760292128   -1.62852192317039
C         4.32316658869216    0.51382143205509   -1.51827806213809
O         2.90901938275259    0.20449087843689   -1.26604183068934
C         3.11262214943671   -0.28597670794630    0.08775289546851
C         4.20128449162401   -1.34863440432404   -0.19529362968353
C         4.81462364427991   -1.10472483912226   -1.60761130050780
C         4.13313454647963   -1.58332049902353   -2.87918869600333
N         3.57736641438598   -1.64366898230070   -4.00946299900974
C         6.21918993884404   -1.48748325398712   -1.82864499084994
C         7.04958101830993   -1.29435586421138   -2.91684675263614
N         6.59408566287541   -0.69134848151444   -4.02864112249032
N         8.30539100972368   -1.75986582270177   -2.74154969489322
C         8.49955705764032   -2.25699548526766   -1.54242825134397
S         7.09624097683583   -2.26659035066670   -0.55895094510589
H         2.63044178070542    2.14924998919158    2.47948984233635
H         2.38774867660998    0.39618088911752    2.53778986391684
H         1.38060363243528    1.31833663676628    1.44193215668132
H         4.37793220236425    0.99093391663208    1.26534797988763
H         3.95570225086546    3.09704973260390    0.35354425055609
H         2.40275337612617    2.66565858922562   -0.35940356736048
H         4.93193445811700    2.83313027140661   -1.71549381075739
H         3.36998713564532    2.33268164877875   -2.43375707019878
H         4.92221288063289    0.62877634204466   -0.59310553731790
H         2.17842398009712   -0.76032144619308    0.41689564019553
H         3.76917920197244   -2.33508584198416    0.00048533465551
H         5.05736598162372   -1.28405883656116    0.48789163151383
H         5.60119668439020   -0.56276451852600   -4.20446619090860
H         7.17325339283294   -0.77036473519004   -4.85966651833174
H         9.44396255329185   -2.59342357647491   -1.13585014428125
