32
 energy: -49.230132839906 gnorm: 0.277670801661 xtb: 6.4.1 (79825abcba525fcdf90b791dcacef51065a7a4e7)
C         2.02350835656719    1.01956005392216    1.73491748150021
C         3.25178854834267    0.84706962413605    0.80282784433963
C         3.58798587719599    2.21851061305253    0.13121171580068
C         4.59210765613236    2.21531659489026   -1.09396370737254
C         4.55139866202083    0.58946586729033   -1.26994677636571
O         3.10140945143603    0.40014398261732   -1.41420122086933
C         3.02512984515189   -0.31702453389488   -0.15141721642207
C         4.03894257633475   -1.46403732993626   -0.37744333835238
C         4.81690443801611   -1.03752689139963   -1.65931001700428
C         3.95612424733229   -1.39430358121629   -2.86020888645896
N         3.24519414121257   -1.76042389469088   -3.83518295749271
C         6.22446886093448   -1.43240057337507   -1.83538817639460
C         6.89110193364457   -1.69019328769494   -3.01867759829177
N         6.34518944454286   -1.93638534152905   -4.22223468575994
N         8.22011836300345   -1.90148046962867   -2.90222859029526
C         8.63096232743781   -1.72893619452192   -1.66765728713446
S         7.39062070508403   -1.29854741548286   -0.56632452398171
H         2.20103543696774    1.81842522190690    2.46592816218975
H         1.95256315508460    0.03155087065406    2.20770180012445
H         1.07645340286852    1.28876301606716    1.24725600615113
H         4.05477589835575    0.64256593258858    1.51102736411254
H         3.90598441291229    2.95277734821147    0.87771409358385
H         2.60372707125495    2.57224857016960   -0.22594419350297
H         5.61024713177363    2.60035049097622   -0.95659881908467
H         4.27532410991454    2.74199258280757   -2.00857572142912
H         4.97846006041706    0.45724713484554   -0.25596844374283
H         1.99529117134599   -0.65209854194246    0.03085130404551
H         3.53726760490154   -2.41848329283716   -0.56582050197059
H         4.76422116763448   -1.67416574280012    0.41854952338843
H         5.42165053973625   -1.59854056263609   -4.47955473777277
H         7.05915034088841   -2.00969469053538   -4.94137835371123
H         9.68401260712252   -1.66210598906708   -1.42888921818563
