32
 energy: -49.230602862420 gnorm: 0.278268511998 xtb: 6.4.1 (79825abcba525fcdf90b791dcacef51065a7a4e7)
C         2.37981764907055    0.87898046826333    1.96515270475886
C         3.48297968235907    0.67302689574861    0.89378305625088
C         3.82982313598286    2.09665800460146    0.34796134651712
C         4.48665474254577    2.23242747055466   -1.08712208695891
C         4.35788785276313    0.64952419000703   -1.47936454220474
O         2.91101671447334    0.44161199557827   -1.32950710505204
C         3.06028569823278   -0.36944068099542   -0.13172372434654
C         3.92250329989675   -1.51443677579480   -0.71491079798705
C         4.68572636371152   -0.94456960790653   -1.94903395370287
C         3.93759749442858   -1.28797341361680   -3.22683176380082
N         3.45614179273509   -1.49209494657475   -4.37425275860137
C         6.12003321555513   -1.27760110014115   -1.95353142753165
C         6.90187555207201   -1.95637138028671   -2.86951399137618
N         6.49110357189119   -2.50559221226035   -4.02571617585682
N         8.19804135537324   -2.11833740702749   -2.52569931986221
C         8.49101799062086   -1.48840127136817   -1.41211243601531
S         7.15970650689349   -0.66365446235440   -0.71639832094114
H         2.80111674148059    1.57524562044068    2.70122331888721
H         2.24430224290899   -0.06756028717408    2.50405580595499
H         1.41009048672526    1.24179030047994    1.59746358219980
H         4.34489385892177    0.30110068449262    1.44779736006828
H         4.42536063209730    2.57936598229537    1.12889963268929
H         2.84097006312473    2.57731598274778    0.23573928261453
H         5.56233941601014    2.43376917009550   -1.00906946335352
H         3.79510247453878    2.82422669209112   -1.70823696514315
H         4.82197890448259    0.37211388056155   -0.51205987848659
H         2.06270794111070   -0.72468485839673    0.15931629177370
H         3.19338422001976   -2.30234083438960   -0.92874107637928
H         4.59307870356993   -1.91684425547838    0.05462443032096
H         5.55041586045533   -2.35662401212433   -4.38095119168322
H         7.22062461671544   -2.95090734125501   -4.57505715869918
H         9.49657191386385   -1.53609604595078   -1.01590810242523
