32
 energy: -49.229257565718 gnorm: 0.288713223795 xtb: 6.4.1 (79825abcba525fcdf90b791dcacef51065a7a4e7)
C         2.14843479025481    1.02288010006912    1.85495066749669
C         3.33030063863809    0.87668666158897    0.86044734193721
C         3.57669800622614    2.17787359369439    0.02909413144582
C         4.34843755361257    2.23833976947688   -1.35296501483781
C         4.47500241518736    0.60810393277432   -1.40123835249202
O         3.03261543125579    0.33366055879820   -1.34360629407140
C         3.04547887968151   -0.31536265460261   -0.04230844125888
C         4.09032944921598   -1.39880339815613   -0.40145444505948
C         4.84876487779031   -1.01522301202617   -1.70834379782223
C         3.95853462240622   -1.30392090203917   -2.90606407849829
N         3.19562288449185   -1.64943876994334   -3.84873222197926
C         6.26932956478016   -1.35795828046837   -1.88916098251364
C         6.97706263178391   -1.62573316807191   -3.04607113464336
N         6.51872140461772   -1.70766172144860   -4.30717844985758
N         8.28652260597778   -1.87166152809233   -2.82398752639962
C         8.58659244020924   -1.77131019590305   -1.55016717120241
S         7.26798448773079   -1.51283490691409   -0.48664505572240
H         2.28410461830834    1.89719312117305    2.50398724199716
H         2.12918712360511    0.22813824955502    2.61174343813318
H         1.14445816441980    1.10415247524526    1.41606256050694
H         4.25197906338471    0.65798106017867    1.39973737992151
H         4.07504678811836    2.80166477255128    0.77747208798799
H         2.55070954339992    2.54248132630110   -0.16028685777568
H         5.36560566952336    2.64315683159852   -1.28071281700172
H         3.84638155961065    2.72567635412761   -2.20425661028631
H         4.99011083913465    0.51945316775114   -0.42408962056966
H         2.05447935792326   -0.75616238125745    0.12996937541518
H         3.63326610352484   -2.39274606971004   -0.43753612110782
H         4.81947955470749   -1.47790175431799    0.41455486587884
H         5.56016891785241   -1.90653759507722   -4.58086134377962
H         7.21072642052935   -1.81275417188213   -5.04363392532394
H         9.60230511412590   -1.92428315762150   -1.21058154713372
