32
 energy: -49.226906194633 gnorm: 0.279245445856 xtb: 6.4.1 (79825abcba525fcdf90b791dcacef51065a7a4e7)
C         2.31349194972348    0.94712900772770    1.94006234850503
C         3.39413624788890    0.79159912236817    0.83768554085342
C         3.56264532609339    2.15749796083414    0.09547781379410
C         4.40054818495242    2.20870424572702   -1.24788449134773
C         4.47409780172342    0.58953418773939   -1.46901030357584
O         3.01229073659589    0.44506171223015   -1.43201518882290
C         3.03505194146371   -0.28634519711781   -0.17531372833425
C         4.01575904802683   -1.45813151394033   -0.41959392768067
C         4.74221865487759   -1.06080656975152   -1.74046762214996
C         3.96735859964858   -1.43680468236699   -2.99290825787861
N         3.30861118856794   -1.86986689919100   -3.97705717989515
C         6.16998713859843   -1.39958741556883   -1.86241450844387
C         6.91957362177293   -1.62648562572658   -3.00156677764095
N         6.58334766679513   -1.60182886977281   -4.30292175670211
N         8.21412693602326   -1.92345219741939   -2.75574186792519
C         8.53523062763617   -1.79474902253686   -1.48962240140412
S         7.22636594247753   -1.30620850345391   -0.49724289062493
H         2.58636436670271    1.72646433497502    2.66273456196022
H         2.17588139379632   -0.00356603445920    2.47106390323330
H         1.43482352778959    1.39020913228138    1.45137140034522
H         4.34059163650728    0.62541833303425    1.35223694402391
H         4.07906388324433    2.77738303009144    0.83479566390006
H         2.57839582862592    2.59395397043318   -0.15395225851322
H         5.37831145383035    2.62064162521843   -0.96857321403760
H         3.88235172675538    2.75069957159447   -2.05532987275003
H         4.96788178194080    0.56747796241778   -0.47719066404335
H         2.03536906471821   -0.71545440270052   -0.02510209495288
H         3.52089045101878   -2.42458930989245   -0.55814076809940
H         4.68871799309659   -1.52627625140809    0.44427537458933
H         5.58526033487968   -1.63708057372268   -4.49227806261580
H         7.12893602724817   -2.25423201748019   -4.85878640748176
H         9.55658043259255   -1.64744684485293   -1.16475627136767
