32
 energy: -49.227191133770 gnorm: 0.274327223039 xtb: 6.4.1 (79825abcba525fcdf90b791dcacef51065a7a4e7)
C         2.43113391329809    1.32302950401766    1.83636649908844
C         3.53932588869925    0.96275988712268    0.81199712393772
C         3.78046480742118    2.23017342052514   -0.07144059835386
C         4.40280391571734    2.10977043543933   -1.52317153662942
C         4.47218446076265    0.47549743746820   -1.54203795492714
O         3.01867332914305    0.31047246778675   -1.40349921371312
C         3.12169334637550   -0.21829636464308   -0.05273531931316
C         3.98003072679572   -1.46239012715501   -0.38444311510185
C         4.67897263655334   -1.19259769515486   -1.75156060603116
C         3.96599800798711   -1.84460730730139   -2.92499183096664
N         3.39643207946147   -2.39301750038028   -3.90727541015730
C         6.12340325022342   -1.47647534449988   -1.78620207501305
C         6.89601050505565   -1.21675395228335   -2.90273842749746
N         6.46784974499844   -0.81274073770763   -4.11130465323506
N         8.21264604066466   -1.43114505335352   -2.69061903370319
C         8.45657527054746   -1.75219616665759   -1.44155726323686
S         7.08350057644184   -1.99486006327796   -0.44536661078445
H         2.77369603466729    1.99093549747842    2.63676065987752
H         2.13723609337551    0.42628951800894    2.39690360581637
H         1.54931836783195    1.66167272627303    1.27518992568254
H         4.39233906089509    0.62441120598582    1.40025361593115
H         4.42358955521323    2.81737453402411    0.59122215000697
H         2.75175236511339    2.61294363434748   -0.20064569315155
H         5.35387260919281    2.63950097393783   -1.65948769373328
H         3.75739076600688    2.47094488678604   -2.34002490629907
H         5.04007756532052    0.36850022305931   -0.59648821593244
H         2.11630246841625   -0.53692103630826    0.25342084868106
H         3.26767644513078   -2.27911966606488   -0.53818011389466
H         4.71464121464144   -1.68746002938899    0.39880562349488
H         5.45795021105881   -0.84700134907825   -4.22178522890601
H         7.02453640158183   -0.99296809278643   -4.94190690484591
H         9.44450222537964   -1.94182405908615   -1.04352089128043
