32
 energy: -49.229357119414 gnorm: 0.276074358649 xtb: 6.4.1 (79825abcba525fcdf90b791dcacef51065a7a4e7)
C         2.41250364045024    1.27699528204232    1.86261543092927
C         3.48425376796885    0.93725543375499    0.79343594641691
C         3.59529806278864    2.15522751705882   -0.18081270064452
C         4.34367643411274    2.12529463103004   -1.57664915497890
C         4.41579370635260    0.49219982657524   -1.51485671793693
O         2.97551230183747    0.22309014274865   -1.40399516560614
C         3.05350254561242   -0.26418757943914   -0.03605852819468
C         4.01010413954534   -1.44730935156225   -0.31833264208542
C         4.70617991866681   -1.16790139488457   -1.68498098494118
C         3.94132485410609   -1.72043672370796   -2.87665697714949
N         3.54290559307834   -2.39128175596345   -3.86724729195320
C         6.14206067418559   -1.47777773645899   -1.78690968596276
C         6.94525336744555   -1.17842518505558   -2.87148340448797
N         6.44372299420492   -0.60718503753796   -3.98023613591503
N         8.24678395323635   -1.51276265800999   -2.73464809769759
C         8.53423150153093   -1.89313284072024   -1.51177319699379
S         7.15195714368858   -2.06806518883337   -0.51410994295471
H         2.79650301658892    2.12727183163459    2.44024187149648
H         2.38156683459949    0.48099358372126    2.61769462533467
H         1.43860027700315    1.51321242877936    1.41215929177892
H         4.41767824751356    0.73980489040543    1.32058775330641
H         4.08616175913818    2.94197001079690    0.40024288153418
H         2.56387903160287    2.46085484033099   -0.43423528279607
H         5.34362319549241    2.57034456225757   -1.50071999334891
H         3.83578831925884    2.65578400935809   -2.39816313816597
H         4.91790620126816    0.57471001554279   -0.53043282549447
H         2.08249949108556   -0.65241221137540    0.29934988151889
H         3.39648205986765   -2.35247952048651   -0.36593238679713
H         4.81901633385732   -1.59691914621699    0.40766018987395
H         5.43702988645703   -0.65495199558979   -4.11276583194378
H         6.99252996790550   -0.54685901769308   -4.83314510581638
H         9.56548656105009   -2.13716711878427   -1.29416889695124
