32
 energy: -49.227554482269 gnorm: 0.281114789227 xtb: 6.4.1 (79825abcba525fcdf90b791dcacef51065a7a4e7)
C         2.25270953841419    0.99574282224431    1.84161399914038
C         3.37593527063959    0.77166536608466    0.79501497366617
C         3.55505976135232    2.15991842781619    0.09815407525615
C         4.39394836364997    2.28307859755687   -1.23991283520201
C         4.52368980427874    0.65763422302659   -1.37073941999704
O         3.08308880081248    0.37701740165488   -1.44175901029663
C         3.02514398861271   -0.34348543199496   -0.17989896704506
C         4.03765557933162   -1.47378886126252   -0.48284592619230
C         4.84520912091515   -0.96897986110818   -1.71708381444760
C         4.02264068298404   -1.22370459796560   -2.96963590355784
N         3.20751511689793   -1.41890370634689   -3.91171221204926
C         6.23035306073391   -1.45148171518507   -1.84644608903300
C         6.92448226652753   -1.75324297716391   -3.00323275628369
N         6.43171875731907   -1.88755711191982   -4.24674571538988
N         8.21833558810681   -2.05378286937680   -2.75806612620559
C         8.57706224113955   -1.78079079343955   -1.52537755689949
S         7.30581276492409   -1.24475231519871   -0.50891151365535
H         2.46540134963817    1.64530930093991    2.70004490466441
H         2.13012033175960    0.04030237725388    2.36775639664319
H         1.27507960446286    1.29859154030110    1.44196490134586
H         4.25561026072913    0.58341925097116    1.41055726860287
H         4.11090888502969    2.68543599612380    0.88071368757746
H         2.58605419116670    2.67989994419316   -0.01186279041026
H         5.28115923941741    2.91819632875510   -1.12497576563874
H         3.84266171466754    2.63376907515227   -2.12724240811976
H         4.98048626283234    0.51300783167825   -0.37152198013897
H         1.99517152079424   -0.67830439096132    0.00208202223780
H         3.51675253936102   -2.38106955708436   -0.80476609734380
H         4.73659954792891   -1.69102907996557    0.33451056947384
H         5.43196121719649   -2.05149833617279   -4.32972133155860
H         6.97378617642481   -2.57088212469529   -4.76781373422190
H         9.60584848858488   -1.84792585309745   -1.19753140348484
