32
 energy: -49.225899223492 gnorm: 0.281291552030 xtb: 6.4.1 (79825abcba525fcdf90b791dcacef51065a7a4e7)
C         2.31393139592833    1.32767817203872    1.88661143903109
C         3.37183605830451    1.04333502007415    0.78788355329438
C         3.43572464527407    2.28396936922294   -0.16169104352136
C         4.01681593343238    2.18110590188822   -1.63175144737949
C         4.32895491628394    0.57935190140024   -1.51786011527290
O         2.93102111680838    0.18914724530592   -1.28842112188720
C         3.09860852712673   -0.27584302292522    0.07923059257111
C         4.18386350101694   -1.34601056159039   -0.18817452010062
C         4.84347939880107   -1.03377331658872   -1.56575674017020
C         3.96264781583241   -1.48350248321907   -2.71999661005942
N         3.79710649953389   -1.83907432536736   -3.91841427671335
C         6.24747392901436   -1.43590434440705   -1.75352348612265
C         7.00349791688056   -1.22024024975129   -2.89060190155954
N         6.67846526980715   -0.63876795106930   -4.05825954691054
N         8.23539789170814   -1.76818464330295   -2.80895198897658
C         8.45657482239442   -2.45648003711891   -1.71347911985285
S         7.18829442701826   -2.28046858925682   -0.57457591716783
H         2.64264231273777    2.25782617774523    2.36708189296314
H         2.24254571537959    0.48998313766502    2.59222570569579
H         1.31315823072974    1.41651246849003    1.44191089416293
H         4.30637008495203    0.95480993679274    1.34192909878265
H         3.92002437050103    3.10616223823587    0.37402265833172
H         2.40665093230951    2.65700966515907   -0.31434920395116
H         4.88029675798124    2.81868955762861   -1.85894333065541
H         3.20069461535376    2.32962920991802   -2.35710747883409
H         4.87251871586630    0.66403937508513   -0.55589248612072
H         2.14649243024748   -0.75342682504742    0.34653706024508
H         3.68351693453065   -2.31840799312184   -0.14097942309550
H         4.99743572966645   -1.41260888561466    0.54493700918955
H         5.74664872055654   -0.52075116122058   -4.44693262916593
H         7.47845521040762   -0.75745313216535   -4.67324894712584
H         9.41490371926444   -2.87660396205907   -1.43871927765289
