32
 energy: -49.172527418010 gnorm: 0.310561191467 xtb: 6.4.1 (79825abcba525fcdf90b791dcacef51065a7a4e7)
C         2.70199800064779    0.13034913194685    2.11516763133760
C         3.56118905622648    0.18974934241284    0.82463339987759
C         3.94616120081565    1.68676709224724    0.58866401420828
C         4.68555279945986    2.06206790239745   -0.76106741291553
C         4.34539351345292    0.71994208553458   -1.63227795189247
O         2.88326537703276    0.64391489846760   -1.50769062275180
C         2.98188636618900   -0.36790166672264   -0.46784744660000
C         3.61126051624057   -1.52824972635994   -1.27532682815430
C         4.54518158458994   -0.82193481202401   -2.30451515279336
C         4.39406570596024   -0.56433877853566   -3.79488372107020
N         3.94594804248137   -0.34574540568659   -4.95309251675627
C         5.98126452455024   -1.08203491441618   -2.10911794275122
C         6.57977447783599   -2.27238148644170   -1.74048336222514
N         6.21161891424748   -3.50952984288652   -2.11612421869717
N         7.88299429745292   -2.20364553323130   -1.39208592037832
C         8.28293667732695   -0.95376135758315   -1.36829030348569
S         7.17364751134253    0.16757838938540   -2.03813387733360
H         3.02010659540700    0.83831800149503    2.89083833143929
H         2.49773177584364   -0.84918554249267    2.56628569464092
H         1.70913974699319    0.46662564311836    1.78600562050323
H         4.45898650126997   -0.39547074819872    1.02371677847954
H         4.54908421152311    2.02798417397589    1.43577159399327
H         2.97117633335135    2.19784787644524    0.68693517246848
H         5.76289849133979    1.99796479980429   -0.56372187806991
H         4.28708034685116    3.04569114915823   -1.05764717188421
H         4.74425284619391    0.12575590994234   -0.78618733686062
H         1.91714183654250   -0.52357454832562   -0.24841833800013
H         2.87211211396878   -2.09090899561100   -1.85429573793447
H         4.17728725731447   -2.22154337949311   -0.64070470312837
H         5.82679990058023   -3.75701016975826   -3.02383817310349
H         6.75122009882249   -4.30852934782143   -1.79563649022762
H         9.30260291631079   -0.69458613178133   -1.11629760320896
