32
 energy: -49.194763914443 gnorm: 0.290199183561 xtb: 6.4.1 (79825abcba525fcdf90b791dcacef51065a7a4e7)
C         2.39293906227049    1.41782329790071    1.65734917340953
C         3.52085534041692    0.82754019025156    0.77045177799095
C         4.25867791633721    1.98648946823059    0.02385840298627
C         4.39160084350206    1.95275796138305   -1.55427949987516
C         4.28727497069243    0.32788506579839   -1.71214659791244
O         2.86315646129533    0.27392533301632   -1.35424208216656
C         3.05345998344532   -0.35992474541660   -0.05933229958323
C         3.94545760137498   -1.59111359157635   -0.34752786873491
C         4.59854582844350   -1.33690717739508   -1.74006973709128
C         3.82428852211141   -2.26710811878771   -2.65965770275250
N         3.43217744551616   -2.89220292116439   -3.68217690192751
C         6.06454727510997   -1.41753648484513   -1.85189555827209
C         6.86299912887324   -1.01269715381644   -2.90527599324913
N         6.41222467028035   -0.59696252934082   -4.10158186554733
N         8.19231015709138   -0.98357727263149   -2.66742828763467
C         8.46565656264050   -1.51171337791820   -1.49734940699111
S         7.09147748536187   -1.79889194091359   -0.51461036097278
H         2.73075216885546    2.30010273602058    2.21550984352185
H         2.20614556250866    0.57778861800794    2.33864962453498
H         1.42587052429505    1.58241322615418    1.16248996844516
H         4.21547323759950    0.61872007893124    1.58412071595418
H         5.26015567986509    2.08682054321942    0.45340755116479
H         3.64532756847958    2.88457470554526    0.22058292809937
H         5.34833811937738    2.22646093276640   -2.01630620290346
H         3.65241127411678    2.57072841455490   -2.08903723995997
H         5.01327719962631    0.28186419929531   -0.87619316049990
H         2.06809751334310   -0.74773663073078    0.23174645386047
H         3.18986612563440   -2.38306915556019   -0.34319972482658
H         4.73453645091999   -1.68524836471814    0.40896458414954
H         5.48093163950568   -0.19657800644865   -4.17683036689236
H         7.07467193535245   -0.22016250067573   -4.77349509796939
H         9.40531856791566   -1.79924193553881   -1.04485189199537
