32
 energy: -49.231206165798 gnorm: 0.281628217631 xtb: 6.4.1 (79825abcba525fcdf90b791dcacef51065a7a4e7)
C         2.52414586173235    1.35424357782040    2.01386792858094
C         3.40663120084991    0.91399479408150    0.81611298638107
C         3.61521733573287    2.17208254362046   -0.08868217939456
C         4.20159024998816    2.13312450634829   -1.55972760489198
C         4.31568391516875    0.50125447667661   -1.56055628917569
O         2.87345913191936    0.28406159241715   -1.38185052400542
C         2.97729956054451   -0.26860180594789   -0.04074909842338
C         3.96354411336886   -1.40717936733623   -0.39501626529032
C         4.74955684010558   -1.12906453806826   -1.71226875739105
C         3.97990536915369   -1.71787555705016   -2.88330609438633
N         3.49328331841444   -2.16324717955937   -3.95796103531543
C         6.17742729745160   -1.47041373651461   -1.82555171754954
C         6.99644088710616   -1.39356569742501   -2.93656104045266
N         6.60775042770997   -0.91813235094008   -4.13241366492907
N         8.30099710599949   -1.66803133130784   -2.71910069608176
C         8.54112301538242   -2.00623961792745   -1.47383554598802
S         7.16453792532645   -1.86659226104832   -0.46283218232761
H         3.13361178450852    2.13208092401923    2.49094065683448
H         2.26495984999633    0.53563833560794    2.69755531865095
H         1.61558537668660    1.82502242420955    1.61376524486785
H         4.36738241819171    0.67760084224566    1.27353183280771
H         4.20085264281656    2.88658489342340    0.49787914482745
H         2.61827087500148    2.62822993728926   -0.22826581906986
H         5.09279279057269    2.74587389675465   -1.74418468723663
H         3.48791726143543    2.43870984903649   -2.34173976154161
H         4.91165614111461    0.46565450381346   -0.62697981008133
H         2.00653904491443   -0.67192130008696    0.27708970196105
H         3.38394198802807   -2.32715686625858   -0.52084791801933
H         4.69782040576564   -1.58582388711817    0.40041574532936
H         5.61254924058910   -1.02145767405069   -4.31178838858512
H         7.28332911574063   -1.02060490274494   -4.88432778811562
H         9.52165795186279   -2.14061739524982   -1.03693142714576
