32
 energy: -49.227697029115 gnorm: 0.279476551619 xtb: 6.4.1 (79825abcba525fcdf90b791dcacef51065a7a4e7)
C         2.38543066237930    1.26186140309231    1.80887552509238
C         3.51531991834037    0.83340545657256    0.83574036401359
C         3.95788381798312    2.13347296609985    0.08813824981761
C         4.56046521092428    2.12616870794726   -1.37684225625762
C         4.41464893009241    0.50054487660866   -1.48685418550502
O         2.95331869574039    0.37534191741068   -1.39764099006781
C         2.97537179026668   -0.25136022945923   -0.08556981060186
C         3.81560012320331   -1.51330116428703   -0.39551147857112
C         4.62256399177351   -1.16890386985883   -1.68412228047967
C         4.05043813447492   -1.77729220261560   -2.95413246881877
N         3.60016840255305   -2.38773139620294   -3.96143644379635
C         6.06858262447391   -1.41747465399244   -1.80825549882329
C         6.82548800358791   -1.27059752583134   -2.95566648171321
N         6.47100241990328   -0.96199134339267   -4.21514368854752
N         8.13680994737746   -1.52569103178998   -2.75604337657060
C         8.44960117025355   -1.68895211034396   -1.49182897042944
S         7.08247669346914   -1.81825778519103   -0.46671121903088
H         2.84575078744527    1.95479525826261    2.52443550951923
H         1.85059201101980    0.41138510172665    2.25086880252091
H         1.63639067258104    1.78281320840530    1.19671104920834
H         4.34610586497073    0.40571139120189    1.39701525306679
H         4.69678354630413    2.60475797181175    0.74346575860015
H         3.05522015496522    2.76849795301578    0.02984707684533
H         5.58178385014121    2.51921942057003   -1.45524874832367
H         3.89797778172809    2.58954404785771   -2.12560673917470
H         4.91376105722076    0.39330408049472   -0.50328833044203
H         1.93099687792652   -0.46943826817098    0.17478976513297
H         3.10143699748252   -2.34225953131170   -0.42600532840835
H         4.52304522205353   -1.74655286460683    0.41003348817026
H         5.53634537253802   -0.99486585380560   -4.61340526278130
H         7.26774901917397   -1.07125266913160   -4.83606144252191
H         9.45381702225683   -1.80685726377684   -1.10706897258318
