32
 energy: -49.230298299102 gnorm: 0.291426718035 xtb: 6.4.1 (79825abcba525fcdf90b791dcacef51065a7a4e7)
C         2.36536156103390    1.33324448375894    1.91384253075559
C         3.36209610754222    1.02963827459607    0.76425139415208
C         3.45979314868027    2.22102475730394   -0.24371725243873
C         4.19509865220758    2.12451088027106   -1.64348025307566
C         4.40710964358133    0.50765334756748   -1.51370769085462
O         2.96404445639623    0.27213862573321   -1.36804879818785
C         3.11390990782961   -0.25138108383254   -0.01962743916658
C         4.14200639779751   -1.38672812857113   -0.23996152726124
C         4.78546068494481   -1.13873068128297   -1.63809666108230
C         3.93552469565519   -1.72514800262815   -2.75349515180057
N         3.36003107526766   -2.25433132323681   -3.74284456095363
C         6.20444323500019   -1.49332383640525   -1.80815130697821
C         7.02013574531701   -1.12685570202932   -2.86237018437444
N         6.70104642428697   -0.35987662814360   -3.91930241803851
N         8.28288102416132   -1.58707484888792   -2.72761107063590
C         8.52944309771976   -2.17769346133445   -1.58170209034986
S         7.12725578568981   -2.32797467065161   -0.60809950366648
H         2.82599535855618    1.97767699717625    2.67318519119619
H         2.00224026880469    0.45550130666823    2.46377909157565
H         1.45785207013291    1.82845326884341    1.54183202328978
H         4.35215703648960    1.04371773900397    1.22003437945922
H         3.88030559412494    3.07506211089169    0.29602897551506
H         2.45127501232311    2.58322807788952   -0.51419129278919
H         5.18946542888102    2.58507774408613   -1.69678209577101
H         3.58725438058149    2.32769327832299   -2.53986008725178
H         5.00544781446297    0.57407367327313   -0.58333407484714
H         2.11111719242253   -0.65157830133872    0.18115367388572
H         3.68179053509362   -2.37966220961270   -0.21961205662414
H         4.97719574141543   -1.34260169035631    0.47017877117380
H         5.71726467793140   -0.34567513783294   -4.17474049241609
H         7.38263569623645   -0.46728762182474   -4.66507784101435
H         9.50110924800823   -2.57299318019605   -1.31713757443487
