32
 energy: -49.228688023392 gnorm: 0.287709222951 xtb: 6.4.1 (79825abcba525fcdf90b791dcacef51065a7a4e7)
C         2.15217244244330    1.08240455476143    1.79925584291851
C         3.37042937715478    0.93594875601669    0.84972068791395
C         3.50130837428959    2.24533193111931    0.00512987372159
C         4.20903684360446    2.20623000774411   -1.41152711410147
C         4.32104806036152    0.57565790239143   -1.48012709973044
O         2.88970250706823    0.30212072873322   -1.29158493263009
C         3.10221228589534   -0.30637370506866    0.01200504038611
C         4.15803229203825   -1.40260865534658   -0.26737903255493
C         4.83132561062003   -1.03310424773798   -1.62401479328927
C         4.02292546963255   -1.41887987409788   -2.85204436751577
N         3.37805280459319   -1.76236522835775   -3.87975892215027
C         6.25652389415153   -1.31971564466458   -1.85817309657030
C         6.99947114387748   -1.44224352608614   -3.01750345959233
N         6.63210155326085   -1.19000573254373   -4.28580796210114
N         8.24796173200060   -1.92387340860145   -2.83367957481953
C         8.58281452015365   -2.06974180119646   -1.57299459713062
S         7.27740275522703   -1.71612153056192   -0.52063129328473
H         2.21810972238555    1.97149828027211    2.43897660907142
H         2.27886246108071    0.26158601593381    2.51683994625309
H         1.27975132165167    1.02425478215396    1.13390102977096
H         4.27010025152297    0.75408877612481    1.43766309090557
H         4.14374910314022    2.93990697864214    0.55501342674041
H         2.53012390033131    2.75574672622651   -0.12803820327762
H         5.17571980699681    2.71860335853280   -1.32951611268046
H         3.63722160610354    2.55388102240374   -2.28698165758486
H         4.87231874106002    0.64836445029349   -0.52157105550412
H         2.17240057939163   -0.80344795813794    0.31930208777486
H         3.70202421843299   -2.39643645609271   -0.31731664617696
H         4.90763030846108   -1.51869198396703    0.52534733411643
H         5.63208029219606   -1.21587819735913   -4.46626545762847
H         7.20446999714231   -1.61461187213875   -5.00995299272999
H         9.53216799442637   -2.45979187745447   -1.23097080236497
