32
 energy: -49.229855994744 gnorm: 0.283897013149 xtb: 6.4.1 (79825abcba525fcdf90b791dcacef51065a7a4e7)
C         2.51425475117497    1.31019983447835    1.90980875149254
C         3.43282062006425    0.95364488972106    0.71134240378611
C         3.65254006626711    2.24896851225144   -0.13648265767114
C         4.39915054157547    2.14023553577062   -1.52934859115191
C         4.32291902729262    0.50653047303964   -1.49450064722389
O         2.86998413466149    0.29343436170079   -1.44262511841497
C         2.91436687762117   -0.23353218689753   -0.08796312001969
C         3.94613982060907   -1.36748581603536   -0.29804923319290
C         4.69268958669988   -1.13939491478463   -1.64747725439523
C         3.93698201943739   -1.73054548773813   -2.82639087694022
N         3.56192106746797   -2.38847468933786   -3.83460642834711
C         6.11731227125988   -1.48059864227775   -1.79646243581275
C         6.91483370425946   -1.27371399443336   -2.90650248409969
N         6.60271171217142   -0.73439739713233   -4.09767758054348
N         8.22679753993779   -1.56241310915629   -2.76546690884882
C         8.51043561903694   -1.86601968573122   -1.52043555171984
S         7.13184114256994   -2.05562259203328   -0.52036370238760
H         2.91171604745108    2.14006927343625    2.50765427382969
H         2.50520982121126    0.49937938425741    2.64954435717949
H         1.47590496611960    1.41958163137385    1.56766494912696
H         4.34980771617540    0.71037468884713    1.24810238692550
H         4.22258028883582    2.88940091300076    0.54354454294350
H         2.64839404542923    2.68199691474690   -0.29658716902965
H         5.45760170644014    2.42299057563814   -1.58816124425450
H         3.89121086411236    2.61991491594274   -2.38149853345147
H         4.81754335981833    0.49707308590798   -0.50289960844958
H         1.92280159618885   -0.57553094157081    0.23745851737384
H         3.45560971936156   -2.34403717456077   -0.36016600474881
H         4.62060501587164   -1.51359872509910    0.55490758661611
H         5.67765851300667   -0.92075998606748   -4.47559606353048
H         7.36410919994573   -0.69149612303409   -4.76903097687277
H         9.47385181622234   -2.17490173525817   -1.13727439902306
