32
 energy: -49.231191917443 gnorm: 0.280329051348 xtb: 6.4.1 (79825abcba525fcdf90b791dcacef51065a7a4e7)
C         2.73018671281718    1.21834429152492    1.92759795639933
C         3.58502422414938    0.93636685030207    0.66388999143943
C         3.64358299356639    2.20049000952861   -0.25453842900321
C         4.29595118441640    2.07775136898941   -1.69282787791223
C         4.29846391488728    0.44245437751217   -1.65022158959238
O         2.86291303146621    0.28400337656893   -1.37965224990044
C         3.05624272157088   -0.29420842563922   -0.05939945513085
C         3.95272311748763   -1.51134325461487   -0.39022889512928
C         4.68175612277698   -1.20536323353442   -1.73380810539628
C         3.93813561514477   -1.83505426793243   -2.90038771063997
N         3.31463098926848   -2.01317397342644   -3.98184759939535
C         6.14322298885248   -1.38411967836649   -1.75189381778224
C         6.99701403311107   -1.23844762546622   -2.82932182556756
N         6.52094834320028   -0.67344329551788   -3.95240339389603
N         8.29523427259041   -1.52839694773304   -2.59471382838773
C         8.47571212514816   -1.90873372588522   -1.35153151226207
S         7.04716516912645   -1.98949178711195   -0.40847932616232
H         3.03448381851427    2.11755058516184    2.47796996580416
H         2.84608888064432    0.35557888837637    2.59612089988928
H         1.65508823367666    1.26693066408781    1.70623928994274
H         4.54739509366953    0.65618314294337    1.09225479301126
H         4.29318219718503    2.89170070215907    0.29115852161432
H         2.64958134767189    2.67928053360962   -0.31916539208598
H         5.30502807919081    2.50443095255406   -1.75145005240234
H         3.69939677442478    2.43107543859369   -2.54929707687038
H         4.89506193963567    0.45960843055470   -0.71652365588992
H         2.06670354572912   -0.64749086686733    0.26008111274886
H         3.35159885438533   -2.42600832547317   -0.40320010304879
H         4.73814481438956   -1.54606234903023    0.37507820982189
H         5.51826949143548   -0.67051452630425   -4.11944637560959
H         7.07055184677246   -0.67432715232449   -4.80693089033988
H         9.41178455547527   -2.16462517477190   -0.87332723707275
