32
 energy: -49.226365058517 gnorm: 0.275800055014 xtb: 6.4.1 (79825abcba525fcdf90b791dcacef51065a7a4e7)
C         2.22696683656161    0.83429062098821    1.94746100648060
C         3.34960038024147    0.77575915244244    0.87812277009075
C         3.51310864206385    2.15618419179036    0.16213463113707
C         4.44382599001732    2.32051665047089   -1.10911893455794
C         4.51426518200260    0.72174195385597   -1.44819950654812
O         3.06108231391870    0.51323152649534   -1.38571923403538
C         3.05064135794970   -0.28600215193338   -0.17085742518739
C         4.06575531440164   -1.39699209284627   -0.53111764243677
C         4.81502640746971   -0.90613427956288   -1.80703669904517
C         3.99898452987448   -1.29582952148808   -3.02875823701312
N         3.28030143178194   -1.76799391702921   -3.95103559821168
C         6.22441446865586   -1.31652772977197   -1.92266050043793
C         6.94092246317669   -1.77649668245074   -3.01173141104223
N         6.42432763654819   -2.12086381994571   -4.20409112743064
N         8.26856979999011   -1.92335210864080   -2.81104921338810
C         8.55556347432605   -1.64332342578453   -1.56126956840320
S         7.24172811411972   -1.27168863166379   -0.52573109792104
H         2.42218084393138    1.65426780704824    2.65003266973428
H         2.12364009752998   -0.06994115462968    2.56098269330674
H         1.24136714822461    1.01998610895825    1.49878799081045
H         4.26988982846867    0.55712774726224    1.41980962083014
H         4.01014981895875    2.78222760643260    0.90950082008279
H         2.55139017888710    2.55404767059676   -0.20969669179859
H         5.46364382751843    2.65433746511985   -0.88050693014581
H         4.02623984005039    2.95263671696749   -1.90930677148451
H         5.04011478481149    0.44201873218055   -0.51371975097188
H         2.06131033744990   -0.72763159162642    0.00873007254535
H         3.63361534984441   -2.36778785647538   -0.79368471533819
H         4.70789042439729   -1.54084307448107    0.34681003993237
H         5.42839404864025   -2.01793051014853   -4.37958424455971
H         7.03339566653586   -2.37290801350714   -4.97726115500246
H         9.56583814782651   -1.43336470841530   -1.23622529398826
