32
 energy: -49.228109663685 gnorm: 0.287050051230 xtb: 6.4.1 (79825abcba525fcdf90b791dcacef51065a7a4e7)
C         1.98233050374775    0.48830549046285    1.82758013813448
C         3.22280239204740    0.36037208766357    0.90449898791435
C         3.70807029580682    1.83073012398805    0.68653210134857
C         4.50307585980348    2.25221178206375   -0.61717221194101
C         4.50977108075988    0.72575251192113   -1.20530071712106
O         3.05152320248572    0.67821431654075   -1.37958231278467
C         2.90098418316229   -0.37539773323251   -0.38861694839302
C         3.86112030184746   -1.43999084096657   -0.97113095227917
C         4.84673927053200   -0.75111812490851   -1.96326382559015
C         4.27687764034031   -0.64324243877719   -3.36825877595451
N         3.81798775544265   -0.58978949570560   -4.54154603921856
C         6.25850908894139   -1.16462686148598   -1.89936640369924
C         6.77344189182173   -2.34914338155198   -2.39210917902738
N         6.03835670938031   -3.44459466271795   -2.65059886048241
N         8.11886698209816   -2.44943391553043   -2.45738137140629
C         8.68780712795922   -1.33768133194730   -2.05359442459507
S         7.58929771396856   -0.10125191852749   -1.60511357772509
H         2.18599963234207    1.03942459416848    2.75432964903260
H         1.61914075198454   -0.53788348503457    1.96811401536472
H         1.28092205585013    1.06802454199418    1.21182933944679
H         3.94745108947402   -0.18563026246708    1.50858731161650
H         4.22238754752174    2.18696680321380    1.58436822318398
H         2.75419405273617    2.38839911657994    0.66241382305868
H         5.48838747833486    2.67219702934501   -0.37947153163966
H         3.93290699092563    2.92603980229596   -1.27680681697882
H         4.92496139993074    0.39751415392906   -0.23170333149692
H         1.85659586516487   -0.70897956725184   -0.32505359498988
H         3.25370009748207   -2.20571544524686   -1.46391625519039
H         4.46255628574029   -1.97216899526470   -0.22356905231481
H         5.02341879109370   -3.50065540708178   -2.65651741567262
H         6.61091654743915   -4.17320060764079   -3.06724097101989
H         9.76360896815805   -1.22406027790205   -2.04210460281369
