32
 energy: -49.230064632015 gnorm: 0.283283521932 xtb: 6.4.1 (79825abcba525fcdf90b791dcacef51065a7a4e7)
C         2.18433200252694    0.91350283902671    1.80496847232007
C         3.39767738251961    0.69219408910108    0.86367590453257
C         3.61012626208687    2.11872517246936    0.25967110320926
C         4.35355820697478    2.28132932359732   -1.12964326196025
C         4.44368408025553    0.66165226213073   -1.34069159776601
O         2.99793956612256    0.39955903673497   -1.35652732494297
C         3.05665146478821   -0.39828276348545   -0.14212455918181
C         4.07946915862760   -1.47169644132033   -0.58503477592567
C         4.84167334442176   -0.91211770953560   -1.82448402132380
C         3.98374294046554   -1.15500196710057   -3.05548073205265
N         3.21872879728308   -1.39073816862661   -4.02976095133630
C         6.25290498753458   -1.32387710204949   -1.90842330676713
C         6.93405698484869   -1.92048173786472   -2.95299281611048
N         6.46224224868611   -2.13874434650734   -4.19272380492329
N         8.22125339278248   -2.21309550104588   -2.66665401557576
C         8.61481796173667   -1.66386124641217   -1.54140770661626
S         7.35809164766623   -0.92546490204283   -0.64028312736124
H         2.36765265908345    1.73284944005563    2.51146880553267
H         2.06628158317075    0.06936098103016    2.49649504587346
H         1.24121928208367    0.98137322552948    1.24538912803959
H         4.28382123033540    0.48454855196856    1.46350039252159
H         4.16629210050429    2.61459255946153    1.06112703089037
H         2.61568298889934    2.58632267124378    0.14180915284069
H         5.37699193929828    2.67418643347325   -1.17408306625647
H         3.65231822466387    2.64881508425914   -1.89610999754520
H         4.93813481354450    0.46453173046492   -0.36874650721742
H         2.04438993269627   -0.81639219675985   -0.06103700284879
H         3.49825000320707   -2.38258647998146   -0.75994749514501
H         4.77867862581119   -1.71975063266899    0.22327386725272
H         5.45183808229331   -2.06506093958034   -4.27597638882527
H         6.94771342589167   -2.86650248179166   -4.70941313977451
H         9.55709039613203   -1.78831179129271   -1.02466204434110
