32
 energy: -49.230172370482 gnorm: 0.273914405311 xtb: 6.4.1 (79825abcba525fcdf90b791dcacef51065a7a4e7)
C         2.31382241475348    0.94470293623173    1.89138651907565
C         3.41061409908743    0.84778293251461    0.79828506604034
C         3.48167033884627    2.21468133605272    0.04231745858648
C         4.26770586203142    2.30015183206986   -1.33033272291535
C         4.41028964071959    0.68181097140165   -1.52180225730528
O         2.99666136535628    0.29633549125294   -1.41141844871221
C         3.08233319653804   -0.33372305122017   -0.10357316969235
C         4.19131456210609   -1.35438003690617   -0.45423265045890
C         4.83946154787401   -0.93167768574177   -1.80757895924720
C         3.92610889991564   -1.33272514999378   -2.95446087028316
N         3.16577852695620   -1.48755146346827   -3.94842600100905
C         6.25009790172277   -1.35060995399049   -1.86018306829397
C         7.03922592328253   -1.62638298288259   -2.96120841301257
N         6.54989272085929   -1.63336434218792   -4.21328066488931
N         8.30095035052040   -2.05162431955050   -2.73381317509897
C         8.52100928438037   -2.04110332178846   -1.43990669847036
S         7.20952973633632   -1.57566449974650   -0.43990480024081
H         2.42130980172093    1.94007305154332    2.34056669681821
H         2.37233585466295    0.23742198969951    2.72867393673003
H         1.28820120439274    0.92557545226456    1.49777210423446
H         4.36503763466337    0.74582560610077    1.31484815357631
H         3.94637091418675    2.91161613143609    0.74649909370961
H         2.45522335303085    2.57232823074560   -0.15756142350857
H         5.29495524414834    2.68343083884001   -1.37013373207094
H         3.59767648816205    2.80817607244998   -2.04253112076849
H         5.00079655635379    0.63822221767462   -0.58509691563357
H         2.15734184410170   -0.85971327970858    0.16806883338411
H         3.75028807026351   -2.34474101239223   -0.60526777318598
H         4.92537174990464   -1.39283180567992    0.36030349568520
H         5.65127365741269   -1.17704850501032   -4.34570593951091
H         7.14773309263717   -1.62440435283188   -5.03473586359154
H         9.46504661772903   -2.40689214503701   -1.05861493286378
