32
 energy: -49.224528565697 gnorm: 0.282343738103 xtb: 6.4.1 (79825abcba525fcdf90b791dcacef51065a7a4e7)
C         2.55131312150881    1.39463156085452    1.84348297293925
C         3.58610284587556    0.97284541661519    0.76713593575760
C         3.67308860200272    2.14612038033474   -0.26281872035937
C         4.19479703616260    2.04374863573859   -1.75502041784718
C         4.33358857645082    0.41686491848056   -1.65499974586809
O         2.91282523774496    0.23770312683819   -1.32567707810175
C         3.13030744908391   -0.27190488092048    0.01885773617815
C         4.04856361417796   -1.47548235945452   -0.30168754887802
C         4.68003472988836   -1.24036838201479   -1.70749110473646
C         3.97010050222344   -1.91284999379078   -2.87117151879279
N         3.50447914680692   -2.42886162542668   -3.92329740719848
C         6.12378617884165   -1.52175139603549   -1.77510563972779
C         6.93973230474936   -1.02582871818681   -2.77476720131043
N         6.44225262836659   -0.27642950554289   -3.77381446848873
N         8.25769141277008   -1.27086454905520   -2.60915152277106
C         8.49786928131403   -1.95000067619307   -1.51196452606514
S         7.10246924020004   -2.29789274743252   -0.58006027712797
H         2.84419395377933    2.34916429472837    2.29863801705919
H         2.42399902008895    0.58725708344014    2.57605239092030
H         1.54258135436977    1.55856045144811    1.44001726729940
H         4.49833801476589    0.88054105159860    1.35659662465139
H         4.31430531235477    2.78718476905281    0.34989172418242
H         2.68848578042072    2.64776244597074   -0.24361442755405
H         5.20381756744925    2.41484439272033   -1.97386674810079
H         3.39408692074783    2.30686531980178   -2.46487073503849
H         4.98891783779156    0.43120283593899   -0.76149357399115
H         2.13083928925794   -0.60417348735668    0.32986427625655
H         3.47984279557704   -2.40821775577002   -0.23318838651392
H         4.78212808755468   -1.50453367629006    0.51368157072798
H         5.53250944558651   -0.47360598799481   -4.18218390032899
H         7.12993578266818   -0.00054718255452   -4.46898557130815
H         9.43403070363273   -2.15187435720387   -1.00873479061050
