32
 energy: -49.229333172698 gnorm: 0.281043338455 xtb: 6.4.1 (79825abcba525fcdf90b791dcacef51065a7a4e7)
C         2.43552964222283    0.81878262511778    2.04303990641939
C         3.44347539357658    0.72232100347245    0.86747332548379
C         3.71690030444529    2.16908709949771    0.34111419528986
C         4.42640741187511    2.23551228959633   -1.07363416512639
C         4.28439384607964    0.66331967067828   -1.50265674610520
O         2.84692468770972    0.40078429135408   -1.34813032884511
C         2.99601609723354   -0.35248085853190   -0.11316633511262
C         3.92180698711315   -1.46063566765332   -0.66944554231754
C         4.71319505276763   -0.92606944501018   -1.90162324054301
C         4.07117531679677   -1.20824705928851   -3.25016938640919
N         3.59872804137814   -1.61424966015163   -4.34652498932621
C         6.15136499069996   -1.23209995875666   -1.98022934439239
C         6.91341382350171   -1.91820898079163   -2.90735748222014
N         6.47476639832142   -2.52626585839871   -4.02316925369548
N         8.23203392401542   -2.01524524808049   -2.63111065709837
C         8.49483257434547   -1.52376341728999   -1.44278701741287
S         7.15294745245228   -0.83688359865831   -0.62782926933141
H         2.72893585277434    1.67404787116170    2.66474095242967
H         2.43123406592738   -0.12300300261553    2.60672577514126
H         1.43209890160775    0.99024414132092    1.62960946234673
H         4.38011174186029    0.38826865262997    1.31387939768345
H         4.39523697422695    2.65148245558326    1.05152998232504
H         2.73246901869068    2.67142828852714    0.34327168065353
H         5.46472185529358    2.58752549689446   -1.11508320892696
H         3.89527200311723    2.86212822152191   -1.80814230165676
H         4.83838154365026    0.35021922581357   -0.59541860512475
H         2.01127998780874   -0.74611617423716    0.17215826882715
H         3.25463066240822   -2.24795703786691   -1.03431763248391
H         4.59859051541640   -1.88678526917693    0.08165244882466
H         5.58351957128663   -2.22559483181697   -4.40859478868693
H         7.18880363797402   -2.64447380382987   -4.73623288328513
H         9.44038701148179   -1.44833380517501   -0.92256731527973
