32
 energy: -49.219175309026 gnorm: 0.278009744356 xtb: 6.4.1 (79825abcba525fcdf90b791dcacef51065a7a4e7)
C         2.69538612382085    0.97120907179676    2.03884688470036
C         3.66996692907705    0.74931667429678    0.85218253119494
C         3.77654169584795    2.09650950722995    0.06563275843281
C         4.21073932009073    2.12710996214197   -1.45747643086308
C         4.30342568636273    0.50124877615126   -1.61240382914724
O         2.88619424680937    0.23715530251805   -1.32809674975443
C         3.12954283057818   -0.36841907476873   -0.02854534954370
C         3.93878608924481   -1.57361294595010   -0.56443292623079
C         4.63281379261243   -1.13688493732005   -1.89029573845656
C         3.85057850735890   -1.43210568891662   -3.15968256099177
N         3.17747346623150   -1.43299988375682   -4.22597001968711
C         6.05818231642430   -1.50597540533978   -1.87407347383384
C         6.98845472723055   -1.75527906708776   -2.86577480342580
N         6.67181863620138   -1.86597763622057   -4.16756897112462
N         8.29675711322326   -1.71242938098426   -2.53261405299745
C         8.45068379051217   -1.39230702596760   -1.26906395555600
S         6.96590784906240   -1.22711887101301   -0.42955876050006
H         3.02886455105515    1.72008327871391    2.76826966800978
H         2.65526312445627   -0.00682238160311    2.53540000458374
H         1.78484924743486    1.35387998898473    1.55751269593821
H         4.68595141661890    0.56279753063635    1.20023875270154
H         4.57129134425016    2.65760172476038    0.56671661199240
H         2.83117824657860    2.63835139929442    0.25043425995507
H         5.15169020841382    2.68449979108666   -1.54497619324540
H         3.47144105316875    2.61878770520308   -2.11012152373855
H         4.92555735813680    0.44352043908189   -0.69717985839679
H         2.12744222415040   -0.73094519963619    0.23684734415281
H         3.27051679855879   -2.37958511750031   -0.88373818412819
H         4.62237886950332   -2.09957916032545    0.11368805941464
H         5.80799506952658   -1.52680310783224   -4.58235361174626
H         7.50505531386650   -1.94217389955515   -4.74393066854422
H         9.42677896664562   -1.24297527977897   -0.82710287704547
