32
 energy: -49.225360915367 gnorm: 0.282332630117 xtb: 6.4.1 (79825abcba525fcdf90b791dcacef51065a7a4e7)
C         2.75638375594803    1.40158460270622    1.92656830945476
C         3.55353985167050    0.89458727641118    0.69583188755224
C         3.58645584855989    2.15852840470140   -0.22412279555491
C         4.23438909178916    2.10177067298001   -1.66852116293442
C         4.32845620054705    0.46936470818557   -1.61932766735057
O         2.89568131381422    0.25009032966871   -1.37808981941069
C         3.02063086506933   -0.32240289917958   -0.04714586335650
C         3.96008314765481   -1.51027662463127   -0.36483728247988
C         4.67340440450800   -1.18638441994612   -1.71264462191150
C         3.95330074046668   -1.75958110520210   -2.92230842566857
N         3.38544386321039   -2.20094322183267   -3.95805848786800
C         6.11388467074760   -1.48878547758852   -1.75431677328828
C         6.96833073566288   -1.19873847580956   -2.80161103355398
N         6.58986857255874   -0.68201929503847   -3.98353671792787
N         8.28842062728370   -1.38558547536124   -2.58495879001627
C         8.44974207258455   -1.93853804363356   -1.40557359250498
S         7.04819160215871   -2.09433400971054   -0.43192088548535
H         3.08162735145597    2.41950409259280    2.17583634191189
H         3.10982942378319    0.78642455158658    2.76404944422451
H         1.66356870975153    1.34278522449553    1.82912631282001
H         4.54155521114687    0.74577351479090    1.13153490326643
H         4.02157091268399    3.00228903352731    0.32019272984739
H         2.53277695680668    2.49162886358495   -0.20796232016726
H         5.21682504273411    2.58187703452203   -1.75821892669521
H         3.56974719707303    2.48490281410629   -2.45954294704570
H         4.92754127139093    0.51878674585985   -0.68837662973900
H         2.03133485562733   -0.73774442140158    0.18705260881915
H         3.35837022057237   -2.40522043644589   -0.55231517184310
H         4.72840675674321   -1.66545292516997    0.40287801013388
H         5.64219229066577   -0.46670957984984   -4.28157732553105
H         7.20394317127252   -0.91720095597053   -4.75805851312537
H         9.44711123699590   -2.15409755432039   -1.04615711072109
