32
 energy: -49.229408323769 gnorm: 0.285086910072 xtb: 6.4.1 (79825abcba525fcdf90b791dcacef51065a7a4e7)
C         1.99444237945650    0.45183213838171    1.85279343557639
C         3.21001065841615    0.44607800481119    0.88864774194279
C         3.57970782935227    1.93009273270323    0.56311503510333
C         4.47580883374362    2.32634008522193   -0.68160043185521
C         4.53355300693164    0.78332596914676   -1.22177715712917
O         3.08921610062202    0.58732429927081   -1.40777467671386
C         2.93521311624923   -0.39709018412519   -0.34853725912729
C         3.90556375490563   -1.45987434198859   -0.91726556463155
C         4.88212900270845   -0.73312451162098   -1.89116134810350
C         4.31245591295763   -0.67223694792565   -3.29905180352794
N         3.78546679875286   -0.47930982251484   -4.42825583619140
C         6.27386587267638   -1.20610676204751   -1.97789446270988
C         6.77103557815541   -2.40775441303913   -2.44682495515119
N         5.98353880837441   -3.47573917081375   -2.66231982135996
N         8.12048484233812   -2.45814902237548   -2.47739261045602
C         8.66881452788771   -1.32557397752967   -2.10411132750947
S         7.56638196172180   -0.17346296058046   -1.47649811977195
H         2.20672609692814    1.05319203321224    2.74575476528584
H         1.84817314199357   -0.58956748071327    2.16713802848320
H         1.07788344262391    0.88106669628505    1.42515521898747
H         3.99417050268815   -0.06519764823673    1.44708086101402
H         4.09743978428056    2.23982783903897    1.47610698218103
H         2.67983209961767    2.56201876958736    0.45198701338851
H         5.46871391812791    2.68932191779827   -0.38815216183370
H         4.00222070794154    3.03285195585614   -1.38217862848835
H         5.01204295093049    0.38732309674460   -0.30403841805257
H         1.94133683239754   -0.86228835880300   -0.30535521136096
H         3.32078255573610   -2.18419613212776   -1.49304305836194
H         4.50066106023747   -2.03668047302814   -0.19827912161807
H         5.14623972375633   -3.27348989133042   -3.20204409312396
H         6.58645339048824   -4.17948873280423   -3.07886826074143
H         9.74432746118641   -1.20889024716701   -2.11105366320602
