32
 energy: -49.227988167088 gnorm: 0.276518054991 xtb: 6.4.1 (79825abcba525fcdf90b791dcacef51065a7a4e7)
C         2.26540925042289    1.01467137859206    1.92250786468238
C         3.37159013538543    0.88808647486999    0.84197263522799
C         3.48683976057387    2.24210514367599    0.06847523766108
C         4.29173770395674    2.22347180289970   -1.29575262747214
C         4.44854913211265    0.59721413513169   -1.37769179872840
O         3.01742325174943    0.26409666866346   -1.37200842542663
C         3.04684244880307   -0.31157619973830   -0.03690245165255
C         4.10130215947783   -1.39213841825802   -0.37608149222835
C         4.82404959832995   -1.02141557643870   -1.70668989033179
C         4.01949884509335   -1.28098144117757   -2.96990558540172
N         3.44585483950812   -1.25187860869593   -4.09245880191404
C         6.20469185258869   -1.50782103003634   -1.86607320613816
C         6.94657611360889   -1.71409792126962   -3.01415341730155
N         6.48113549642662   -1.70641747615689   -4.27529840188182
N         8.26163504664268   -1.95916002513898   -2.82693195362444
C         8.58406019526427   -1.77601202412273   -1.56787300928916
S         7.26062934425182   -1.57048174921558   -0.49880622678419
H         2.46447369929389    1.86833759342447    2.58258768946046
H         2.23516984367562    0.13652049520997    2.58027452824045
H         1.26656075114165    1.16742500155813    1.49103939402821
H         4.29263717222756    0.87562697383494    1.42478831787349
H         3.91213065695689    2.91917731675372    0.81562812288022
H         2.48760133074991    2.57864832354076   -0.26276113027749
H         5.28515105306266    2.68705195679098   -1.25157609846900
H         3.67164978255818    2.45685205260216   -2.17625202171453
H         4.99704797324915    0.54924359606680   -0.41599374957369
H         2.06609833372990   -0.76205971713376    0.16624694706962
H         3.63368421853527   -2.37979309209932   -0.43934707372264
H         4.86207839050186   -1.42187322188775    0.41393305847488
H         5.48186762655609   -1.57089100241096   -4.40325586224136
H         6.98698231594897   -2.06785126079433   -5.07889447186780
H         9.52876038374040   -2.01397595420795   -1.09744120748672
