32
 energy: -49.227255948703 gnorm: 0.282860728893 xtb: 6.4.1 (79825abcba525fcdf90b791dcacef51065a7a4e7)
C         2.50674680412717    1.19590895063262    1.79054382818090
C         3.61851271395297    0.75495561306755    0.80223568472918
C         3.98837551250621    2.08293009711960    0.06424345224913
C         4.62736663035817    1.98966857660501   -1.38224132508283
C         4.36213075796296    0.38099249481885   -1.51576682956902
O         2.90252380137262    0.28182221985573   -1.37853121899157
C         3.03089888021490   -0.34384649017946   -0.07207371738698
C         3.83878648986914   -1.60933406631897   -0.44677521748002
C         4.62000954305489   -1.27609048899146   -1.75404612988596
C         3.84931821232436   -1.64015593423440   -3.01256964881749
N         3.22126532997993   -1.71574932917692   -4.10338372449479
C         6.07114631595693   -1.50850532025815   -1.84543409283323
C         6.91971560151740   -1.39195375383972   -2.93050389934974
N         6.52759674952221   -1.25624953595456   -4.20917813517432
N         8.24018300148181   -1.46927495307267   -2.65687169012004
C         8.42878041445456   -1.48236486035373   -1.35802979738779
S         7.01167263389686   -1.51424532713232   -0.39501117321140
H         2.70125379145723    2.14506707477812    2.30565927487719
H         2.33541071201629    0.39204254942323    2.51797982683253
H         1.61788339335121    1.34597016117909    1.16237147490582
H         4.44103638977786    0.36983113085190    1.40497189480504
H         4.74630302797140    2.66964882664918    0.59229981503913
H         3.09648920976607    2.68845024474128   -0.17935551575734
H         5.67588981892240    2.31243270304307   -1.36996747360894
H         3.99358452123747    2.41959449320687   -2.17454082613123
H         4.91976282070418    0.27529377606090   -0.56398452313544
H         2.06858126892852   -0.65811214155330    0.35365625940389
H         3.14411998851983   -2.45208020777643   -0.51990670161337
H         4.55772754966272   -1.90574390748806    0.32720964964536
H         5.55627738089902   -1.26346434365487   -4.50878361026308
H         7.27095400704530   -1.46220657259791   -4.87045245141173
H         9.38810343542006   -1.61334586859495   -0.87539673262578
