32
 energy: -49.220612841884 gnorm: 0.283194186224 xtb: 6.4.1 (79825abcba525fcdf90b791dcacef51065a7a4e7)
C         2.45697671761193    1.09786509882227    1.89318207244005
C         3.39825648903721    0.72740384923420    0.71676075108903
C         3.68358504587615    2.07469454958119   -0.02374086486766
C         4.64497107687705    2.09696651366244   -1.28253649361757
C         4.43673568626423    0.49138042998089   -1.51652203170782
O         2.97198092367039    0.37920974296636   -1.48439651721858
C         2.99700511328441   -0.38177202493735   -0.24542386209658
C         3.96167187980797   -1.56058271307570   -0.51812481898821
C         4.75085169586555   -1.14912962120776   -1.79805434035290
C         3.84718558783868   -1.54567550316903   -2.95413789343176
N         2.91458309528846   -2.01083155651965   -3.66401294291280
C         6.21351067295294   -1.31242014543464   -1.84422029023703
C         7.00023104006391   -1.40309383593432   -2.97730455661379
N         6.51177974898027   -1.37978013002601   -4.22952356778479
N         8.32756839680184   -1.48163124754260   -2.73961834214950
C         8.50749441582642   -1.60483102916067   -1.44533126489027
S         7.15902563913536   -1.43238707104734   -0.40201408410679
H         2.92578865775557    1.86252812976505    2.52530852370661
H         2.41792365406608    0.20979707203005    2.53702243915292
H         1.46225331269945    1.46561728637343    1.60598751964097
H         4.30326195544146    0.43082874801444    1.24701099422496
H         3.95325189261839    2.77140717259333    0.77588893857380
H         2.73600391841847    2.47380400819246   -0.42902833264540
H         5.67282849814031    2.32582714929144   -0.97454275603535
H         4.28553462472289    2.74542743425476   -2.09774102314762
H         4.93173555958663    0.36680889551943   -0.53292030650976
H         1.99161721025010   -0.78260442736548   -0.05943286908994
H         3.33403730838293   -2.44143321375746   -0.68637484258279
H         4.63147303175429   -1.60590942939272    0.34968825413493
H         5.54730866424962   -1.68365579183443   -4.33311858156385
H         7.08367266804860   -1.75334776460609   -4.98163243469587
H         9.49078884727872   -1.79514913080416   -1.03630505267140
