32
 energy: -49.226077378744 gnorm: 0.283109627025 xtb: 6.4.1 (79825abcba525fcdf90b791dcacef51065a7a4e7)
C         2.66347676192148    1.27383161612884    1.86053488509264
C         3.56267548858156    0.83753232219225    0.67381636446759
C         3.67465035961642    2.08426487710020   -0.26323583464609
C         4.52923822820942    1.91825672153443   -1.58665808072786
C         4.33741178591806    0.29441716032577   -1.63529529840839
O         2.88447462150723    0.18139224462058   -1.44735969370588
C         2.97464970667435   -0.33897827732237   -0.09242217735345
C         3.89707161256017   -1.55794166570952   -0.33285615203138
C         4.68155746630410   -1.36384234776198   -1.66598232482664
C         3.82766992822025   -1.82071315357627   -2.83753488001740
N         3.22112425914842   -2.06078464001289   -3.91665868107359
C         6.14260921823230   -1.52250743446790   -1.75719380569193
C         6.90749273698605   -1.08926645553463   -2.82409870696280
N         6.39178707616126   -0.76612436037063   -4.02276776188949
N         8.23899489593010   -1.06614184180339   -2.59814611918955
C         8.52361919527583   -1.60736594646368   -1.43676931948262
S         7.17497936963614   -2.00910544136320   -0.45881651069301
H         3.00926451449687    2.22967918989780    2.27389221522008
H         2.75984695139153    0.51504723060670    2.64773207934062
H         1.61837829602686    1.29418461858644    1.52207958945781
H         4.56174325633283    0.73226578489692    1.09682884096128
H         4.17486727495695    2.83576368805150    0.35528585840053
H         2.65485986793807    2.45779013001022   -0.46808339279426
H         5.57229455514020    2.19460584482355   -1.38818170346441
H         4.09158458731154    2.48255267922768   -2.42587433162167
H         4.88769311170091    0.33567526246122   -0.67430438853097
H         2.00888950085581   -0.63893728197450    0.33582531794216
H         3.24147388298605   -2.43399560632799   -0.36204411634765
H         4.67789135989219   -1.82357530451378    0.39070926582553
H         5.40009952612820   -0.56280213788130   -4.11492356833986
H         6.98463256501962   -0.13360708691823   -4.55261506378792
H         9.53253997230652   -1.63869548361242   -1.04755384590087
