32
 energy: -49.233017734960 gnorm: 0.279781439008 xtb: 6.4.1 (79825abcba525fcdf90b791dcacef51065a7a4e7)
C         2.62189447744990    1.37002417710011    1.82248478682761
C         3.55582103872289    0.97010374638624    0.64985479551850
C         3.63428014001816    2.22284620672338   -0.28257630166659
C         4.27982376294256    1.99490843347774   -1.71108719337665
C         4.36301053041656    0.36429837972246   -1.61004921540792
O         2.91462522356806    0.21052530378693   -1.41600108324772
C         3.03816336464114   -0.27764082416784   -0.05174126252333
C         4.00795908386331   -1.47035028941187   -0.22917519751390
C         4.66931486461152   -1.30152017927652   -1.63075391309309
C         3.94019679762587   -1.84353099059128   -2.84936022630094
N         3.39387483162006   -2.05355883569584   -3.96625804830498
C         6.11220762604863   -1.57821015680000   -1.72908744124850
C         6.92127260665379   -1.06145960854204   -2.72378001877204
N         6.47827149293415   -0.35609231296408   -3.77895186517731
N         8.24441660623721   -1.29467428637836   -2.58453856803063
C         8.49819932070331   -1.90103084048319   -1.44846785976167
S         7.11186234990602   -2.33769626587282   -0.54071855209660
H         3.09654376806092    2.16968011933754    2.40501071856300
H         2.56894460999513    0.50130893271590    2.49125269513963
H         1.64055572941212    1.76225004967236    1.52193502207996
H         4.46018180331890    0.79286298349149    1.23198392363970
H         4.22637141648636    3.04503793419795    0.13090307020498
H         2.57899165871009    2.51564501159221   -0.43120793735297
H         5.26062537925428    2.45807303206422   -1.87611734040386
H         3.58026590334693    2.24347651728553   -2.52538889481602
H         4.92145864471722    0.40087323979823   -0.65359049762564
H         2.03419114200438   -0.63292763840636    0.21635415180341
H         3.50412566942998   -2.43690101777546   -0.12886367944243
H         4.81911958423468   -1.36197221219169    0.50161920147099
H         5.51076584634806   -0.42199734978563   -4.08369136386084
H         7.17324111727514   -0.24267128689487   -4.51136904676342
H         9.49944680696274   -2.23339498691261   -1.20882457660140
