32
 energy: -49.231422015787 gnorm: 0.281850176669 xtb: 6.4.1 (79825abcba525fcdf90b791dcacef51065a7a4e7)
C         2.31789552406144    1.09601082486822    1.87713940817422
C         3.43052643274657    0.95256522106585    0.80536886834080
C         3.45501452130111    2.27075831744684   -0.03529429228926
C         4.10888546713101    2.24025224055584   -1.47780867158044
C         4.38716718520045    0.62831339617286   -1.46263288228854
O         2.98044391954187    0.23213829910377   -1.31000332706272
C         3.15147557269421   -0.32309266413673    0.02312811925178
C         4.12063644580438   -1.46384918097782   -0.36922910003919
C         4.80941876512360   -0.99661237619256   -1.68740461531158
C         3.96974732214313   -1.51833398114851   -2.84202519689965
N         3.42559533360278   -1.86008509560805   -3.92698830065360
C         6.23922063467030   -1.30955996870075   -1.84832938007117
C         6.99376711168830   -1.51332231423387   -2.98857984632705
N         6.65185528168069   -1.06570926912324   -4.20920243672173
N         8.26830470098941   -1.92334473044213   -2.80991012646369
C         8.53567748029683   -2.12959892685498   -1.54156411828589
S         7.22832376400119   -1.74999928734950   -0.50072500006213
H         2.38819866126770    2.07012371336706    2.37737893645226
H         2.45657512450532    0.35575086594828    2.67557759683490
H         1.29861013576783    1.00006839068382    1.47832945159882
H         4.36994004219919    0.93413134071172    1.35792589364942
H         4.00698254494798    3.03057822005707    0.52643653708371
H         2.44024644464241    2.67425863357752   -0.20526349076820
H         5.03766236115048    2.82262558940890   -1.43372953374045
H         3.49298434238006    2.43213270739526   -2.37117435467747
H         4.91192575324885    0.66359754923350   -0.48723616086080
H         2.18630370935409   -0.68371582557800    0.40320483331169
H         3.50401706242184   -2.35793883493313   -0.50529914030696
H         4.87790169376817   -1.64722741149950    0.40324056952652
H         5.66020457074903   -0.88667670074341   -4.34281764774591
H         7.10441158055429   -1.56813985002950   -4.96751526529719
H         9.50792781526338   -2.40547442112266   -1.15554163693090
