32
 energy: -49.233676501000 gnorm: 0.283901579238 xtb: 6.4.1 (79825abcba525fcdf90b791dcacef51065a7a4e7)
C         2.62112932457061    1.41300013271725    1.86410415502525
C         3.50885960628200    1.02748205353430    0.65145126702969
C         3.52331292536723    2.23446472589127   -0.34249600776516
C         4.27388954326972    1.99250914147993   -1.71632926005824
C         4.24201711213886    0.36243295423336   -1.58271181294892
O         2.80312638096102    0.15045231689897   -1.37347870981621
C         3.04375745633023   -0.26661677629764   -0.00128238394413
C         4.03267743857768   -1.43479596362090   -0.22917942931309
C         4.70611995260281   -1.26607017864952   -1.62500347820923
C         3.97754568770038   -1.98691406645981   -2.74748013963411
N         3.37156069442978   -2.33161095629142   -3.79819721699726
C         6.16475981013476   -1.43562789564576   -1.73356816382642
C         6.99523905886107   -0.98423542435597   -2.74231969425054
N         6.62093112769269   -0.10404131760210   -3.68695324553336
N         8.30323486678891   -1.30073255350566   -2.62628587993807
C         8.54412902220622   -2.01251193822607   -1.55014894417442
S         7.12755639605491   -2.39395122798493   -0.66446177716421
H         2.94631104320401    2.30904337181170    2.40764936879247
H         2.69160806674363    0.52799541853756    2.50948759337050
H         1.58145384437576    1.54547659365463    1.53437408643801
H         4.47551944814514    0.90732564888711    1.14062218959985
H         3.86897124819997    3.18010442428773    0.08624912925035
H         2.46539817304226    2.34524503210597   -0.64249664756634
H         5.27541963371955    2.43089410126570   -1.80843955837830
H         3.68320930303985    2.31297495666780   -2.58962936034176
H         4.84281592093521    0.49189026329311   -0.66059637015220
H         2.12631201709816   -0.64804876152330    0.46655049568499
H         3.45962515372099   -2.36739374494972   -0.23099182257929
H         4.77423051087550   -1.53005827512059    0.57382228277091
H         5.65078683597287   -0.05626107860277   -3.98664294630520
H         7.24669343866321   -0.11461852580043   -4.48732296672100
H         9.50541666020260   -2.43618192231904   -1.29165101617463
