32
 energy: -49.222635974510 gnorm: 0.282215612083 xtb: 6.4.1 (79825abcba525fcdf90b791dcacef51065a7a4e7)
C         2.47780423745335    1.46130233102272    1.88095075260340
C         3.38582286996615    1.06490043516703    0.68697254115823
C         3.45372076433049    2.22696279118515   -0.35703330770910
C         4.08803575518733    2.02876232514778   -1.79497859124493
C         4.33484200424827    0.43434342018574   -1.52491769177513
O         2.91762017022167    0.09689628930268   -1.33326034228996
C         3.05823161591032   -0.28434586163741    0.06304032199748
C         4.16793419864768   -1.34344661005245   -0.14044971793284
C         4.74402620283121   -1.20834585946211   -1.58273394406888
C         3.96345586953187   -1.82750299438122   -2.73066453506665
N         3.57034217868101   -2.32880239230536   -3.81887438768976
C         6.17534289037785   -1.52070317250576   -1.73082787563336
C         6.97653904604396   -0.94281378605663   -2.69786416517363
N         6.61155453007188   -0.15903560426996   -3.72726141880552
N         8.28860120665636   -1.24392353794239   -2.58689964534269
C         8.52770489349090   -2.07312186047918   -1.59796579371115
S         7.12684435686924   -2.58095607312332   -0.75161488141555
H         2.96953771712114    2.25353441349934    2.45943545304567
H         2.28682337213783    0.60211831527603    2.53673235916442
H         1.54838551325778    1.89942759304219    1.49181822389891
H         4.34325202585671    0.84088626027611    1.15740220195453
H         3.84673853580499    3.11262372728957    0.15157090568385
H         2.43662462753471    2.55909366166953   -0.63391020621493
H         5.05660704515021    2.51173028289723   -1.97481133563500
H         3.37256235690597    2.21367313790926   -2.61238935582446
H         5.03992036353030    0.49386909003389   -0.67207744079273
H         2.19003450258361   -0.75398064024491    0.54443521734973
H         3.70727514316592   -2.33450215873131   -0.07935171417830
H         5.08468941456778   -1.38620577290425    0.46081490974469
H         5.63898946637140   -0.06406462921574   -4.00721592283219
H         7.35426806289555    0.07506797426322   -4.37983644046776
H         9.49450191896601   -2.54741319796902   -1.49431928845373
