32
 energy: -49.227419724509 gnorm: 0.283379511670 xtb: 6.4.1 (79825abcba525fcdf90b791dcacef51065a7a4e7)
C         2.65943084307801    1.00024896490757    2.10201548671024
C         3.45092693365635    0.80883052132592    0.78136822615842
C         3.65904961033482    2.14881447503685    0.00285990100654
C         4.40170674608980    2.20315112366702   -1.39529369581415
C         4.36288235342495    0.57004878057878   -1.48182265174073
O         2.90143037709930    0.41792209079294   -1.47014280721654
C         2.92362951712698   -0.24885028418076   -0.17797621674784
C         3.84303218072111   -1.43884540693870   -0.54287724308887
C         4.69142987354217   -1.06183106444870   -1.79523482716969
C         3.94796185459652   -1.57361844360459   -3.01823082421953
N         3.26553400219984   -1.86983179501933   -4.03636146903956
C         6.14824732373555   -1.25854482370071   -1.87980996622930
C         6.94660961731274   -1.61279520443110   -2.95132986684300
N         6.68458361457491   -1.60689559582084   -4.26984729112188
N         8.22673942677707   -1.88674730805851   -2.61860591515031
C         8.51089006218197   -1.73683874541820   -1.34600368778888
S         7.11107906163061   -1.32847647989018   -0.44578975928164
H         3.27953815765960    1.59926587227683    2.78078179352880
H         2.55550664368661    0.01283982381810    2.56992929110738
H         1.64172190704994    1.35573893362205    1.88966568469207
H         4.43923053107238    0.49410725107890    1.11657303940611
H         4.20268087760541    2.82835946599168    0.66635079002135
H         2.66375590827092    2.61019790083917   -0.13120002837931
H         5.41168033735319    2.62711634199338   -1.33256376561617
H         3.72454315308407    2.62711685050583   -2.15421205925427
H         4.95067058263094    0.42702396993122   -0.55334852967387
H         1.93194444144469   -0.59696037534579    0.14052680031322
H         3.14292400080941   -2.25309123801105   -0.75496940919802
H         4.44125636587699   -1.73144370128797    0.32907555169086
H         5.71223588564634   -1.50873549516758   -4.54945648689864
H         7.42868593035480   -2.08553622266259   -4.76934396834805
H         9.48567902302805   -1.89134510771699   -0.90293978446095
