32
 energy: -49.230357755243 gnorm: 0.286870078800 xtb: 6.4.1 (79825abcba525fcdf90b791dcacef51065a7a4e7)
C         2.17473464406425    1.33161332170210    1.71250986429747
C         3.39544929838974    0.95632711225755    0.83146942067623
C         3.68214926908774    2.19979178702337   -0.07215991904816
C         4.40127356990944    2.08757919456350   -1.47914042470505
C         4.42164447506917    0.45194363602369   -1.46184279422914
O         2.97926828060751    0.22421620999783   -1.29809920989160
C         3.03480304304615   -0.30294679080637    0.05607498909683
C         4.07094472132177   -1.42285094079583   -0.20231913571683
C         4.74867570247979   -1.20516747433929   -1.58926275561546
C         3.98061593831500   -1.70594292659948   -2.80157392744305
N         3.32494233913847   -2.15223710778410   -3.78185642265086
C         6.17962477826184   -1.48099018309733   -1.80014881093637
C         6.91001508667318   -1.27103271896916   -2.95491218890357
N         6.51454277836534   -0.60817690523265   -4.05555039612940
N         8.24113436367460   -1.44606075328700   -2.80667597574651
C         8.56537474003904   -1.94730967035695   -1.63776695711034
S         7.22592260306870   -2.12418439296385   -0.58363271453340
H         2.30955867693258    2.31209915433266    2.18637487498852
H         2.00815351404504    0.57447294841174    2.48949735555356
H         1.35348489693838    1.38536505161232    0.98459734232180
H         4.30652461736850    0.79667321746357    1.40819240424099
H         4.32571866312135    2.89902469973560    0.47045253698453
H         2.70351214951789    2.65440178730926   -0.31102268035628
H         5.45892763201445    2.37898168187103   -1.49258236377945
H         3.80964215754964    2.45286249343715   -2.33400587333578
H         5.03309936191119    0.50576568719402   -0.53921534991200
H         2.04527534296343   -0.69251561450513    0.33018292002815
H         3.47649649397944   -2.33532057170477   -0.31259745069222
H         4.91168211670118   -1.48784525843052    0.49962387558591
H         5.57356889964360   -0.86477663473997   -4.34190953480578
H         7.14927624410286   -0.57466261162170   -4.84818666538058
H         9.59359984025725   -2.06140591838405   -1.32133916475576
