32
 energy: -49.228713782416 gnorm: 0.283177957520 xtb: 6.4.1 (79825abcba525fcdf90b791dcacef51065a7a4e7)
C         2.24253020579177    1.50212110438693    1.70390232669095
C         3.41640598038187    1.16132809311975    0.74834382010857
C         3.39979171369874    2.25978382553216   -0.36434042360873
C         4.05206706795792    2.08797711881021   -1.79763902725805
C         4.32368167742308    0.49465917683193   -1.54548572754437
O         2.95163214324109    0.05181306929178   -1.26178124550891
C         3.16561878476081   -0.21629487074316    0.15140683488268
C         4.31724046982051   -1.23319021627310   -0.03361684635877
C         4.81981667926296   -1.12442671642733   -1.50531846149888
C         3.97240415439396   -1.79504683298319   -2.57422019531888
N         3.59529858714977   -2.42652781421373   -3.59845811032613
C         6.23367324861434   -1.46123065452134   -1.74140964700760
C         7.10973652998421   -0.88457679616513   -2.64197282490112
N         6.83135744013030    0.11588816087814   -3.49564464807968
N         8.32590737820583   -1.46352379476929   -2.74314668124770
C         8.43197436092541   -2.42103848619518   -1.85171748985644
S         7.01947478690886   -2.78289410665783   -0.95142800288658
H         2.18110054151253    2.57062926835707    1.94596582242283
H         2.25489475929844    0.94388597262856    2.64885789962257
H         1.30269731541251    1.23789695701451    1.19982220086091
H         4.34075341082037    1.27483117408979    1.31478523951849
H         3.90599373373786    3.08706244884613    0.14251863302397
H         2.32506866310500    2.42896332977343   -0.55877535691262
H         5.00130922725532    2.62250231067045   -1.92783252684206
H         3.28751334593805    2.20469087370984   -2.58255307090454
H         5.01402015354909    0.64871681440643   -0.69242399036466
H         2.32014019948679   -0.74560403843596    0.61082153314739
H         4.02461284290227   -2.27831642927013    0.10854890013693
H         5.18748510807847   -1.03766151803344    0.60531227280098
H         5.85521243319122    0.22906580321092   -3.75566111054833
H         7.44295878460785    0.27478717465260   -4.29124312176877
H         9.26860595685280   -3.10118421428209   -1.76316965114813
