32
 energy: -49.228009489858 gnorm: 0.278245654872 xtb: 6.4.1 (79825abcba525fcdf90b791dcacef51065a7a4e7)
C         2.10144070528350    1.05902282362132    1.76364329800748
C         3.32815429119542    0.84518642828785    0.83808182234018
C         3.49989746204170    2.24680708686778    0.16658270338663
C         4.42625717299944    2.26225201407790   -1.11830822561079
C         4.52899600324222    0.64584206134891   -1.34783256639316
O         3.08240495050121    0.39476318446654   -1.40660802696629
C         3.05073246482665   -0.29775183002568   -0.12825263409646
C         4.09658592244461   -1.39847335707615   -0.42682437281690
C         4.86646581130173   -0.97318916237846   -1.71396706950108
C         3.96960263944892   -1.39692837350167   -2.86569263280003
N         3.22823648781628   -1.73208561710584   -3.82906483086593
C         6.22578769869922   -1.51317483907111   -1.88374875099566
C         6.95949276734552   -1.66617713226163   -3.04534152309224
N         6.42133930911611   -1.97327548055110   -4.23834701404431
N         8.29856055000115   -1.74598545242523   -2.88717888405915
C         8.64462010861058   -1.64117082734107   -1.62543910530393
S         7.31931519436687   -1.52814963382723   -0.54497217376125
H         2.25646025464430    1.96417936789603    2.36425848782444
H         2.01637160734133    0.20388482086717    2.44644826615509
H         1.20672546649667    1.22892633239648    1.14897714924492
H         4.23652514885502    0.67591757152410    1.41632696308151
H         3.71593762907556    2.99246354962939    0.93785411533187
H         2.46491717585737    2.41879804405125   -0.18082368682646
H         5.43732089960468    2.65488168557804   -0.95301973751476
H         4.02509084069829    2.85283167558964   -1.95767452032294
H         4.95607604267128    0.48394460195384   -0.33817562232275
H         2.02727258315244   -0.63619830738034    0.08162340382468
H         3.62604529501185   -2.37978333889915   -0.54409784518111
H         4.82290618371179   -1.53486662289098    0.38412777145618
H         5.44771664537250   -1.73847311478938   -4.41213876613697
H         7.05194243198228   -2.00578344145011   -5.03431495894387
H         9.67140107526008   -1.78354304397688   -1.31585493735518
