32
 energy: -49.235904443065 gnorm: 0.273868126158 xtb: 6.4.1 (79825abcba525fcdf90b791dcacef51065a7a4e7)
C         2.18992937208668    1.07705999458158    1.81752598690534
C         3.36150500702807    0.83615362390538    0.82929983688984
C         3.62616093238761    2.17341344719853    0.06337512562168
C         4.39977974819375    2.20295056098600   -1.31864045227791
C         4.40181723583286    0.57187570890180   -1.44357455343874
O         2.96000865905668    0.30035327264050   -1.36243011364861
C         3.04112683222276   -0.35275326330502   -0.06564778941718
C         4.07325412479632   -1.44992242424867   -0.41987300360768
C         4.80123283837349   -1.04761423927641   -1.73839988179816
C         3.94222494570201   -1.44668147879545   -2.92719802565966
N         3.21129264964741   -1.72294967522103   -3.91687171267421
C         6.20599430468722   -1.48161173836340   -1.81876002872088
C         6.93514140483989   -1.65686125363748   -2.98007941671583
N         6.51435654975822   -1.50169197278984   -4.24737703112857
N         8.26536194332998   -1.82130328569346   -2.81286859404583
C         8.61616947089557   -1.72901225890498   -1.55146182422737
S         7.30124711559869   -1.47926047700921   -0.48131279532004
H         2.36979748121754    2.00953933922540    2.36726026062069
H         2.12241955670123    0.23187839603418    2.51454167547595
H         1.27452651636143    1.09741950077393    1.21022034913021
H         4.21698033175306    0.53400392696720    1.43347243997137
H         4.17187004511658    2.78645957782061    0.78719313793733
H         2.63677962288614    2.59648583255899   -0.18879677002322
H         5.44428216279541    2.53676412476620   -1.28242694388291
H         3.84585410639155    2.81755409997611   -2.04643397952525
H         4.93896443470727    0.57405378122333   -0.47430501698417
H         2.08242284310118   -0.77899053795395    0.25880952086920
H         3.53489302965129   -2.40092189469688   -0.48230831836738
H         4.78058821715813   -1.55033893200666    0.41282299754637
H         5.52537985197321   -1.42765610252660   -4.47035818808144
H         7.18234071132258   -1.85892947245041   -4.92447419290577
H         9.63124977751441   -1.77698619819851   -1.18037985064462
