32
 energy: -49.231757741075 gnorm: 0.274885713884 xtb: 6.4.1 (79825abcba525fcdf90b791dcacef51065a7a4e7)
C         2.14857507899023    0.81213861414820    1.86389475476248
C         3.31614876793244    0.66469543344112    0.85283171963242
C         3.66267377877776    2.09172295154659    0.31574686867610
C         4.58608298893346    2.23239860206321   -0.96364805189536
C         4.45077717613668    0.65547485620422   -1.37719576050114
O         2.99748353596134    0.45355102910206   -1.45647496172660
C         2.90457045159569   -0.32258443292002   -0.23019864523565
C         3.92173918139907   -1.43260836228089   -0.58762985245237
C         4.78300547570285   -0.95210045484703   -1.79496183904992
C         4.01164843037846   -1.22868700821709   -3.07515652839659
N         3.40453242688444   -1.43740071158453   -4.16046242826114
C         6.21936256379613   -1.26576133229694   -1.87658009709903
C         6.85200752912877   -1.96523411642090   -2.88728716962539
N         6.30965075109316   -2.62866140490280   -3.92309313878244
N         8.18516281784302   -2.10749368221859   -2.72313322628004
C         8.63978322957241   -1.41699984792442   -1.70368771950279
S         7.39577452560374   -0.80385370938781   -0.69715413600997
H         2.48512656214236    1.55267371030449    2.60038569650361
H         2.00425151193472   -0.14292151859819    2.38519239583042
H         1.20377956929839    1.16914335703037    1.43133713586227
H         4.19263590387946    0.27147679327780    1.36791074903248
H         4.05628350495740    2.68687138681519    1.14544936480111
H         2.73570093476066    2.60674736159578    0.00441507260031
H         5.61185304266853    2.55420938938205   -0.74464617416145
H         4.20719026070960    3.01295715315536   -1.64292943525268
H         4.91082354522230    0.39745961476926   -0.40261853399137
H         1.93038062307401   -0.78522834665399   -0.02288514779707
H         3.41544896923281   -2.34009314033041   -0.93153744523847
H         4.57319306081311   -1.68529587133382    0.25826877534703
H         5.44852924744694   -2.23797569323723   -4.29606934310590
H         7.02565906446460   -2.82419766084949   -4.61690846619344
H         9.66497787639052   -1.45077084843054   -1.35984645503845
