32
 energy: -49.231785722040 gnorm: 0.291029053857 xtb: 6.4.1 (79825abcba525fcdf90b791dcacef51065a7a4e7)
C         2.27431751610954    0.69981809522742    1.95454211510446
C         3.36932717668586    0.67846264441222    0.85558166989269
C         3.57049744955909    2.11165567461959    0.26360572566367
C         4.46252104035085    2.33427975942524   -1.02637799683170
C         4.45712269652412    0.72281125626103   -1.30772826182360
O         3.00026352163587    0.54398999008497   -1.37632219055569
C         2.97850933504957   -0.33077845253880   -0.21482331866080
C         3.98916704853075   -1.41109244577847   -0.66873419195357
C         4.81526614569158   -0.83790345164507   -1.86009168236432
C         3.97318829332102   -1.16378663759241   -3.08283257031398
N         3.29201396365552   -1.39475219577547   -4.11854323635173
C         6.21867212736417   -1.27156646162381   -1.96282626938972
C         6.91848042118223   -2.00155202408055   -2.90538662269226
N         6.42000473088125   -2.67327566879546   -3.95776011467799
N         8.23525469191842   -2.14568033367263   -2.64115213835575
C         8.56435552026385   -1.60022767914873   -1.49358748264998
S         7.30079536335683   -0.73274917987306   -0.72709385605675
H         2.57370586927590    1.34507296789406    2.79006039731857
H         2.07780193536750   -0.31873933196493    2.31321017041367
H         1.29899004626897    1.01182411676968    1.55631403410177
H         4.26183771435990    0.35110849984986    1.38889321964337
H         3.86602847635290    2.77380821121623    1.08321047186975
H         2.58030420405388    2.52000894859943   -0.00882999957139
H         5.50735904432822    2.62808717601433   -0.86600668794872
H         4.00772737693477    2.88093899645918   -1.86815050311824
H         5.04896611133414    0.45681311259374   -0.40940668749140
H         1.98385809894849   -0.79158859141920   -0.14858862986958
H         3.54111338926291   -2.36858157271953   -0.95262382078186
H         4.74926367879295   -1.69244748818522    0.07077921598477
H         5.54266509159708   -2.36581782677214   -4.36888253788149
H         7.12680228726065   -2.89505463807893   -4.65312573094095
H         9.59643083412514   -1.71465740005790   -1.19007843094177
