32
 energy: -49.229293437374 gnorm: 0.277542171078 xtb: 6.4.1 (79825abcba525fcdf90b791dcacef51065a7a4e7)
C         2.10452733756969    1.08663479354673    1.76780090689796
C         3.27635679728707    0.84711891981673    0.77953771573255
C         3.51005901395416    2.18127755853177   -0.00171208981634
C         4.58790047202691    2.18711422414086   -1.16255199948004
C         4.56554842540691    0.55943267179706   -1.32432657885356
O         3.11367685541158    0.36690336969277   -1.44316363063599
C         3.04201243944507   -0.32323874741151   -0.16514141966656
C         4.06387067771404   -1.47031961614838   -0.35102751977642
C         4.82051720163111   -1.08167005897487   -1.65745607232540
C         3.95445544240422   -1.50320755949028   -2.83331040857422
N         3.06408530790764   -1.82606583265739   -3.66580287560025
C         6.25031403113570   -1.38958238177754   -1.82785970419650
C         6.88749587140860   -1.61630353909272   -3.03352442699294
N         6.40860794468183   -1.56318768641957   -4.28852470557044
N         8.21046256675950   -1.85008875784088   -2.89355687842403
C         8.58801628288150   -1.87123100290870   -1.63668107288760
S         7.36936028763641   -1.44119340077143   -0.51126518347873
H         2.30498053612804    2.01823997887640    2.31186738309681
H         2.13919987518617    0.23887470486872    2.46409181384475
H         1.15826478682382    1.13806953416575    1.21179848981010
H         4.06776271408502    0.66973688611185    1.50780229232073
H         3.89293296330631    2.96178895278028    0.66292767109390
H         2.54900294185655    2.46857651256206   -0.46570219830069
H         5.56777024010941    2.57111039664805   -0.85250299694899
H         4.21293260061228    2.73140682185528   -2.04425445176682
H         5.06527115120496    0.43088928486722   -0.34362831289725
H         2.06403063374794   -0.79910111453538   -0.01292218426356
H         3.50857240892689   -2.39858711910019   -0.51864048712286
H         4.74939655220866   -1.55098139781625    0.50181219200272
H         5.46310247499395   -1.24262171336509   -4.47966255343098
H         7.16468802050495   -1.53135761978132   -4.96647146142189
H         9.59742619579939   -1.93667911785166   -1.25301516224620
