32
 energy: -49.227806383506 gnorm: 0.286792195282 xtb: 6.4.1 (79825abcba525fcdf90b791dcacef51065a7a4e7)
C         2.32108718260056    0.95901114150595    1.96091226192624
C         3.40554049528027    0.77077482754286    0.86741129116101
C         3.63806299328033    2.13881638629516    0.14675683992939
C         4.39314883983067    2.25135936495699   -1.24122911574196
C         4.35504693320228    0.63468138988011   -1.48804570523218
O         2.90712132318220    0.42139607264939   -1.35711967196396
C         2.94105261019885   -0.30880705471710   -0.09997021378983
C         3.93809884520453   -1.41694821607842   -0.51525852245972
C         4.77063441815444   -0.98467651693780   -1.76038650101019
C         4.05651504714012   -1.38794327864103   -3.04015198423044
N         3.42499881938903   -1.64033320536871   -4.10200259699437
C         6.19775218143827   -1.33346026388502   -1.85963939458824
C         6.93662256992627   -1.64217117176842   -2.98649285169090
N         6.54707802844768   -1.94358295521319   -4.23732722155109
N         8.24900093029065   -1.90315700122414   -2.80200233373309
C         8.56920002656060   -1.62484143423691   -1.55993004174758
S         7.27747418063888   -1.20269856323660   -0.51596862800024
H         2.53627551627860    1.74427905769634    2.69652514714806
H         2.18942153677417    0.03280172293143    2.53495115446056
H         1.32339091826916    1.13807082607131    1.53695845714451
H         4.32391146992065    0.40052025291472    1.32311218771710
H         4.16993295805840    2.76031653637168    0.87366014363695
H         2.58257100725294    2.45313070834925    0.05402357750341
H         5.43469778491535    2.54983997663848   -1.06856374959264
H         3.88778428866000    2.82664443095984   -2.03363577436904
H         4.89843864669420    0.45138159933630   -0.53981475691535
H         1.96795288887360   -0.77249798678970    0.11010536450130
H         3.33935572891726   -2.32060571034096   -0.66704995093968
H         4.62159861434327   -1.60919487417359    0.32119644162178
H         5.59266447372899   -2.13421844365278   -4.53063540017367
H         7.19891389045014   -2.54840881578563   -4.72883279022087
H         9.50284452296116   -1.81552222288724   -1.04773852429704
