32
 energy: -49.226818068670 gnorm: 0.281675780228 xtb: 6.4.1 (79825abcba525fcdf90b791dcacef51065a7a4e7)
C         2.44726677183482    0.96474387747093    2.03886926060458
C         3.51304523295972    0.74531294460019    0.93289339797844
C         3.67052366478444    2.13972194966347    0.24313160782777
C         4.25563347570062    2.29300595650841   -1.22092989776106
C         4.34525294202403    0.68157376554067   -1.48789898184348
O         2.90551676385845    0.48605935474096   -1.26868520775405
C         3.10333668846341   -0.31980957348751   -0.07444266547482
C         3.99152360480130   -1.46441142103066   -0.61809055877770
C         4.70576742867392   -0.92298377329326   -1.89364137167625
C         3.98341310197554   -1.29365931862773   -3.17862935482985
N         3.56226528024325   -1.55856427625667   -4.33729238704995
C         6.11963370595758   -1.33228621044040   -1.93389093719596
C         6.90674654459184   -1.81837730522551   -2.96111993802228
N         6.64532782762000   -2.05656037755940   -4.25808166170439
N         8.18953936626715   -2.07831296946298   -2.62740847006086
C         8.46366815638613   -1.76389321629768   -1.38293098219637
S         7.10439339504195   -1.17425712796417   -0.52193324543876
H         2.86707778791271    1.65744327795852    2.77914237771300
H         2.25588088324287    0.02122371902933    2.56599498750003
H         1.50567104898019    1.35181876425395    1.62562894078067
H         4.42513550852733    0.51903405180345    1.48520327100908
H         4.31387812918110    2.75699371488223    0.87764489377699
H         2.65973581199185    2.56277785548403    0.09895150870437
H         5.27201329234904    2.69135221269795   -1.33056810321181
H         3.54439268330341    2.83112629500639   -1.86809106975454
H         4.95975365786281    0.59259837917104   -0.57002778004383
H         2.06263964669762   -0.55714294620750    0.18379489313733
H         3.35059587682119   -2.24179002794227   -1.04590475470054
H         4.76228006683091   -1.78345922566968    0.09460194181867
H         5.66371581196618   -2.02305299143804   -4.51998225417778
H         7.34005643824141   -2.58799502582551   -4.77500661473057
H         9.41520675017201   -1.95743854918888   -0.90595523123225
