32
 energy: -49.232860940850 gnorm: 0.277671632391 xtb: 6.4.1 (79825abcba525fcdf90b791dcacef51065a7a4e7)
C         2.52558230149105    0.92503441086773    2.02938240140497
C         3.47077283883225    0.78756573907855    0.80670767682219
C         3.69318412510050    2.17983388617939    0.13063824150976
C         4.40278537881608    2.24723060247178   -1.28401695006170
C         4.41215402478430    0.63117332983354   -1.53756964423337
O         2.96554442823757    0.44859436160396   -1.35561794386202
C         3.00121527333765   -0.32239938927793   -0.12311280038466
C         3.98813765538367   -1.41792134479376   -0.59253614177657
C         4.71043457596079   -0.99464775031134   -1.90761965095094
C         3.89726159966569   -1.44044439460002   -3.11194738687908
N         3.31309040797118   -1.63988676690477   -4.21149588372633
C         6.13142956398911   -1.38053756391818   -1.90226679698078
C         6.95078987531710   -1.71849293666503   -2.96314635636170
N         6.61748121766560   -1.83454420667117   -4.26030404758777
N         8.23918154940806   -1.91030896991544   -2.60573788399057
C         8.43600174746830   -1.65322754472406   -1.33377029668067
S         7.02473382184084   -1.31102702256662   -0.42391462550499
H         2.94826924742793    1.62265709103947    2.76336903483535
H         2.47997388141230   -0.01981147869325    2.58607486264732
H         1.51248897422057    1.30979697390766    1.84828376814130
H         4.43285153131128    0.56092538946795    1.26626805974764
H         4.27820205600147    2.78484892400346    0.83010041547510
H         2.71410011663943    2.67821451354794    0.01035716571533
H         5.44259930854868    2.59694456170803   -1.26934233503735
H         3.79467887515723    2.70137896983254   -2.08289759949472
H         4.99754547168630    0.46026032938246   -0.61230163156124
H         2.02256370365094   -0.76325676510800    0.10915854487800
H         3.50079695632889   -2.37944389116364   -0.78254737171148
H         4.76901766060389   -1.58516788722010    0.15982190996539
H         5.63534232611987   -1.94288915412822   -4.49892798385096
H         7.28483112210047   -2.28290288119177   -4.88151306160960
H         9.43732711347157   -1.54530716901023   -0.93868541569532
