32
 energy: -49.229371702700 gnorm: 0.283376694968 xtb: 6.4.1 (79825abcba525fcdf90b791dcacef51065a7a4e7)
C         2.47035728775623    1.27026945256829    1.92318501287174
C         3.48472978082374    1.06307822314589    0.76761739932871
C         3.45995747372600    2.25716788734244   -0.24158201765619
C         4.19060740491915    2.19645493828860   -1.64578648606642
C         4.32982199512980    0.57360484163949   -1.49414643604184
O         2.91102599723965    0.23919691361018   -1.30891663405628
C         3.15452583926980   -0.23484998999948    0.04413918910031
C         4.11333111506413   -1.40436578438000   -0.28368341473183
C         4.76083738618518   -1.05625579731329   -1.65840995227129
C         4.04269722990868   -1.58034467923657   -2.89129104689844
N         3.61399543665002   -2.22368864447203   -3.88746545603732
C         6.17664596653487   -1.44123898551373   -1.78266915345495
C         6.99101078411751   -1.29228925312674   -2.88976197302024
N         6.64206968925359   -0.61848273172935   -3.99944909957821
N         8.25007460569636   -1.76778977768828   -2.77511096436244
C         8.45021199034815   -2.24490912928204   -1.56886358352178
S         7.10112161491080   -2.16708131040529   -0.51505445190174
H         2.64592591812133    2.29406949333213    2.27686165756238
H         2.54086606566276    0.51213671324272    2.71374408152884
H         1.48056512338814    1.26832534496488    1.44621045689740
H         4.43091380581120    1.06102333835941    1.30880920568780
H         3.78432916563680    3.18621138813174    0.23716393605473
H         2.37642773343297    2.42814776631879   -0.37643551882713
H         5.18699215403195    2.65268767050786   -1.69867627887240
H         3.49648095863382    2.53540758331879   -2.43163260803605
H         4.93471375984972    0.65387277334569   -0.56911762504198
H         2.22761844147369   -0.66092982032590    0.45078738081593
H         3.54020236772022   -2.33249207686633   -0.37443501619108
H         4.84438723085943   -1.65370724630058    0.49552991002608
H         5.67786518219624   -0.29674440471491   -4.00787127865695
H         7.05944915339899   -0.80868876650909   -4.90603504673697
H         9.43669138468109   -2.44640838317137   -1.17307599692377
