32
 energy: -49.228740228954 gnorm: 0.286612181752 xtb: 6.4.1 (79825abcba525fcdf90b791dcacef51065a7a4e7)
C         2.27001792718617    1.30123671222116    1.73892850448609
C         3.46786979991790    1.01414705819331    0.79555864521890
C         3.65871016998950    2.26759902548933   -0.11952898627076
C         4.34917083334459    2.10794807209421   -1.53625098219162
C         4.37088133561990    0.47236354471569   -1.51600830678068
O         2.93110997836445    0.24604925369655   -1.32902940460029
C         3.11112425757856   -0.24988024368529    0.02611689466206
C         4.06757966597859   -1.43407599263225   -0.25212021603147
C         4.73193131337266   -1.17800703818971   -1.63898126462512
C         3.97210682183982   -1.73777687312253   -2.83049908534800
N         3.44575857557726   -2.44967892128938   -3.72838167259827
C         6.15767116682723   -1.50701178895027   -1.80386941688994
C         6.93209208665773   -1.12729518417370   -2.88420183991726
N         6.52788611437636   -0.51365764676912   -4.00992256321770
N         8.26089597706904   -1.27948871560370   -2.69550984420526
C         8.55495475613854   -1.89413997241498   -1.57369708785968
S         7.17384843566164   -2.26820564457907   -0.63070403357320
H         2.40819133685898    2.22031143385400    2.32227042903766
H         2.13729879047982    0.45721539195413    2.42793795373455
H         1.37206584567481    1.38217177768395    1.11097260661025
H         4.33805032536128    0.97709454090594    1.45097451806931
H         4.21892607273455    3.00551211961736    0.46286170393539
H         2.71821853496169    2.82572090136241   -0.27900230160464
H         5.38063644750168    2.47385597407852   -1.61318148335147
H         3.59885138553036    2.35333509335341   -2.30505556751557
H         4.85433307021422    0.40125842171295   -0.52140598602627
H         2.12064939422551   -0.58548626357707    0.36136641596652
H         3.54320331772122   -2.39302828918181   -0.19236436233332
H         4.84765353678222   -1.44532088823133    0.51933680004789
H         5.58407458786330   -0.70780320199178   -4.33365721145170
H         7.22128147811456   -0.56209451103459   -4.75096154870178
H         9.54954109870634   -2.29836334003742   -1.44030730194748
