32
 energy: -49.228741069552 gnorm: 0.281053793945 xtb: 6.4.1 (79825abcba525fcdf90b791dcacef51065a7a4e7)
C         2.24405555461093    0.90615325315388    1.80735972771385
C         3.41218545018705    0.82898374351795    0.78915852563314
C         3.47266849546142    2.25922908876391    0.16012171162283
C         4.23613445638124    2.37783359144054   -1.22276594453914
C         4.45159070692711    0.76430078276271   -1.38434667391602
O         3.02432742783776    0.41498875740312   -1.38898062676711
C         3.03984848755388   -0.32164686269093   -0.13522635899138
C         4.15316836584901   -1.34231949570416   -0.47181015511091
C         4.87661761845142   -0.83286370999082   -1.75531863147770
C         3.97486201719162   -1.21755122842291   -2.91688766087758
N         3.24154036996504   -1.74830657181970   -3.79471354319537
C         6.26012300028474   -1.32742119363950   -1.85274613033568
C         6.93009994733343   -1.69342531078165   -3.00522280515001
N         6.56422015088273   -1.59131645946900   -4.29475233262463
N         8.16270276887682   -2.20306580983974   -2.79204642340396
C         8.56503069314371   -2.09398366991682   -1.54747263184724
S         7.34527981508596   -1.47492133552106   -0.51520071103057
H         2.28702416096588    1.81175443851343    2.42551685086005
H         2.21643468837857   -0.00246489666394    2.42247802998348
H         1.30081258381755    0.91881944663180    1.24403983505579
H         4.32653240617518    0.63873580923447    1.35123714421063
H         3.94417085199178    3.00421010064937    0.80836960319111
H         2.42462838210284    2.57781453480038    0.01324925651501
H         5.19572012219525    2.89729751832862   -1.10839468648821
H         3.57969532444621    2.81940587856841   -1.98980970449390
H         4.94259439118460    0.72809715574857   -0.39156272514076
H         2.11431667942963   -0.89073400829902    0.02475737399961
H         3.68849170535044   -2.32239399759240   -0.61898490206154
H         4.89583631929865   -1.39682216661467    0.33395742855403
H         5.59048866476059   -1.34448711783033   -4.45031288869550
H         7.14188062235323   -2.13822317623152   -4.92679937296434
H         9.51223185721089   -2.49706119178608   -1.21471171844857
