32
 energy: -49.231745491261 gnorm: 0.278073131033 xtb: 6.4.1 (79825abcba525fcdf90b791dcacef51065a7a4e7)
C         2.46101874575663    1.26299026658226    1.85670925715147
C         3.50285410719756    0.96208693684108    0.74709106299729
C         3.49559447717029    2.20290888986082   -0.20435806119452
C         4.21759166249494    2.14102990331759   -1.61298030532913
C         4.32668370623184    0.50940495730191   -1.56919889550003
O         2.90683813844077    0.21674537224446   -1.32938697428909
C         3.10578529647240   -0.30999202846059    0.01141145926915
C         4.13448802265448   -1.43444204387872   -0.25677742484254
C         4.77207244452200   -1.12310880124206   -1.64489690983281
C         3.91747307471271   -1.49866977824703   -2.84448188545274
N         3.32725059639326   -1.74639904120481   -3.93090159282558
C         6.19274873594921   -1.48549828563992   -1.78098174027981
C         7.03044972023260   -1.24515482867869   -2.85407198516900
N         6.60971996933938   -0.74917081782997   -4.03057824150814
N         8.30681656016489   -1.65987504254545   -2.70115978026519
C         8.51675082517596   -2.08384282487655   -1.47686017810942
S         7.11608298588294   -2.17808659234831   -0.49407667573186
H         2.65317826272526    2.19530283787466    2.40255358087871
H         2.51136912485456    0.48652008973297    2.63084056605646
H         1.46825373989532    1.28866735686404    1.38665036139254
H         4.46158250548285    0.78472916862643    1.23447293025524
H         3.86672938703606    3.07305138112779    0.34577595197891
H         2.42527171569691    2.38252685605798   -0.41317103049443
H         5.16188065910075    2.69756208355752   -1.56483027188642
H         3.62812548333106    2.59768068489715   -2.42430898864660
H         5.00907463375406    0.61155478339245   -0.70206376814644
H         2.14582841611539   -0.73029304104144    0.33988359637001
H         3.65505034413900   -2.41683671570137   -0.31308948996438
H         4.93578058573784   -1.45350222984232    0.49245855794589
H         5.67610102509750   -0.49931254550165   -4.34554382513063
H         7.29868593102702   -0.79882783417133   -4.77565684120692
H         9.43554730984760   -2.61306874690393   -1.26209448730433
