32
 energy: -49.230364404159 gnorm: 0.283269671159 xtb: 6.4.1 (79825abcba525fcdf90b791dcacef51065a7a4e7)
C         2.17784153384038    1.04073300078993    1.77605098884474
C         3.42447477290700    0.88782502707505    0.86514979169127
C         3.60285342082333    2.22164826410315    0.06888106364204
C         4.52704553012582    2.14419656281941   -1.21532910151345
C         4.49200474023388    0.51961286665752   -1.40379084411349
O         3.03412017913138    0.33718737819164   -1.38343451710942
C         3.06090286282018   -0.26498209094069   -0.06001193911278
C         3.99816614865950   -1.45221902660962   -0.38642947179764
C         4.76415903484167   -1.12504119563815   -1.70420318561294
C         3.85913532718519   -1.45541884145526   -2.87986169993003
N         3.16018107533408   -1.82143573609465   -3.86349513179201
C         6.19169282477631   -1.43922943930316   -1.88196534299076
C         6.94884991781128   -1.66673277386096   -3.01597855641882
N         6.48289022668092   -1.68515009560943   -4.27682073883369
N         8.28308929162728   -1.76881344992724   -2.83193469415598
C         8.59850854440000   -1.68151122655951   -1.56086443269300
S         7.25512591408501   -1.46446615995976   -0.51931258863187
H         2.32416916564577    1.98926459614117    2.30798526452916
H         2.20734516232928    0.24642418068132    2.53296803459894
H         1.32686450765489    1.10859313083812    1.08436454305892
H         4.24724503529687    0.67906054860365    1.54897980816527
H         4.09890840453037    2.96003932651171    0.70625426742252
H         2.59117100686789    2.56464662315849   -0.21450401340517
H         5.54759202794084    2.52356419330980   -1.08007654050466
H         3.98219741701375    2.64258546075024   -2.03325550000137
H         4.94419064176647    0.42163286355002   -0.39684341589502
H         2.08721801221846   -0.70342411533630    0.19644566351391
H         3.35285782425554   -2.32297826770997   -0.53968200992888
H         4.72845396793407   -1.65405979743803    0.40712432278259
H         5.64868614372007   -1.14915345224466   -4.50062413678181
H         7.20257337383419   -1.78398527934838   -4.98715151490854
H         9.61521016399418   -1.69006385337072   -1.19122132408228
