32
 energy: -49.228661513479 gnorm: 0.271244744664 xtb: 6.4.1 (79825abcba525fcdf90b791dcacef51065a7a4e7)
C         2.41688987858270    1.15756880921789    1.86685232305305
C         3.54290197940575    0.82447109494804    0.85277198657461
C         3.92902056714213    2.10924637983722    0.04952099568721
C         4.51037095118836    2.03194794588283   -1.42200278798120
C         4.42114209630507    0.40708621267103   -1.58897707777813
O         2.97170784450289    0.26920724497548   -1.39085951224311
C         3.08136966953705   -0.30383957828886   -0.05880684019257
C         3.91006741514282   -1.54582447802314   -0.46534830214789
C         4.65177214711723   -1.25694837492760   -1.80577460473775
C         3.90070581730083   -1.64510057978952   -3.06895608773543
N         3.22595743708158   -1.70917802120734   -4.13227581303399
C         6.08468598879343   -1.59230207922247   -1.85539491369797
C         6.93582923444783   -1.50638843957742   -2.94130679957629
N         6.52668624274802   -1.33228058713219   -4.20995533599728
N         8.25082120281321   -1.45509688155179   -2.63691787960127
C         8.46114431401574   -1.44154585067748   -1.34142139134451
S         7.03063114504945   -1.58276658433086   -0.40852028535224
H         2.67096792837446    2.08841276216648    2.38939602046103
H         2.36808278556138    0.37676373584194    2.63671054636311
H         1.45304721817344    1.30524331746738    1.36049612427435
H         4.44099896862952    0.53966237544052    1.40091685135482
H         4.57727185926974    2.68876188129507    0.71395199473439
H         3.02873743937165    2.74567092702469    0.12639990359417
H         5.51645904925572    2.46480462386383   -1.48642357731569
H         3.84973299596418    2.53793012453705   -2.14435593906890
H         5.04913132147529    0.24449877311852   -0.69052832905844
H         2.07657511834003   -0.56058410309645    0.30248840515612
H         3.18890533445379   -2.36872105338831   -0.49530330040587
H         4.67397085537531   -1.82830448718464    0.26980079611871
H         5.53168997681991   -1.45787297382651   -4.37574375360354
H         7.20150585237506   -1.52359520415041   -4.94500584233207
H         9.45481219872040   -1.45470637968964   -0.91382076735038
