32
 energy: -49.229460760702 gnorm: 0.283695484056 xtb: 6.4.1 (79825abcba525fcdf90b791dcacef51065a7a4e7)
C         2.29526012149280    1.16937129069158    1.89125738745516
C         3.36818544139980    0.91194077165093    0.80048836755590
C         3.60166308613734    2.25928437266014    0.04213444957031
C         4.29939461460495    2.22684085875391   -1.37964039182468
C         4.37514603213673    0.59768282714820   -1.50661944846335
O         2.92650660773197    0.37967817004767   -1.39243270413606
C         3.00496219855081   -0.26645273083035   -0.09199728524712
C         4.06180847888107   -1.35825977415101   -0.38453058197143
C         4.78575767813560   -1.03098045221649   -1.72583733017471
C         4.00018579587672   -1.61967242155060   -2.88631517092231
N         3.42626009141175   -2.17305528209194   -3.86325776582292
C         6.22434259322180   -1.29865032260209   -1.89013166248567
C         6.99699510928418   -1.44474563789322   -3.02709904742970
N         6.64786307234136   -1.23723168354608   -4.30859247764000
N         8.22648776080578   -1.94537142320642   -2.77768182004787
C         8.49496526691824   -2.04712715258837   -1.49694133453656
S         7.18333645224213   -1.60769444988506   -0.48543530487550
H         2.66037898181875    1.87730389574729    2.64597434138407
H         2.11371998812303    0.25912736765014    2.47710682190843
H         1.35774601719921    1.52119489334639    1.43905777265095
H         4.29447320763632    0.69587615643651    1.33290179720914
H         4.20188510131153    2.81272482290789    0.77081387752137
H         2.60205770557351    2.72822219883286   -0.00626679749215
H         5.35637257541986    2.51222748631474   -1.30836435593554
H         3.72636580792162    2.62700446298740   -2.23155683536900
H         4.98256060057435    0.55260232796828   -0.58085998381968
H         2.02203250538881   -0.62523241703009    0.24145503752352
H         3.67269425773587   -2.38092310791149   -0.41420640712661
H         4.74140875848910   -1.45070407720750    0.47184849782723
H         5.70127681805180   -0.94102654632423   -4.53110942591226
H         7.11943741216944   -1.89274862790809   -4.92519381932041
H         9.45825853325785   -2.31631750071030   -1.08463805154936
