32
 energy: -49.230968594742 gnorm: 0.278031416892 xtb: 6.4.1 (79825abcba525fcdf90b791dcacef51065a7a4e7)
C         2.48878883219827    0.79343682897864    2.03321049911444
C         3.49363660457522    0.65666156825606    0.85899171470677
C         3.75679632655240    2.11555630481380    0.36167856894232
C         4.51791630264272    2.21996736986798   -1.02364459850329
C         4.42832784885215    0.63674364923209   -1.42538383771031
O         2.96071892152450    0.56681912870711   -1.40653111395791
C         2.98328821829935   -0.28154347044643   -0.22562289211243
C         3.86560589075065   -1.45964101742399   -0.70326722988367
C         4.66841475674045   -0.95843810499466   -1.94206163328547
C         3.92747561535032   -1.24952570519288   -3.23692357090716
N         3.53164329584878   -1.59569217778638   -4.38301505474078
C         6.09939695507501   -1.30542593857187   -1.94952914040280
C         6.88001903962762   -1.95253073140365   -2.88916478689351
N         6.50067576381804   -2.52154247481853   -4.04653462966245
N         8.19949310069745   -1.98688894040770   -2.60229367685792
C         8.42958020071894   -1.45503400131328   -1.42461764136674
S         7.07202779345387   -0.79210188325281   -0.61579864659919
H         3.07127320144208    1.10884513515231    2.90802910692120
H         2.05293673905443   -0.19372374823099    2.23387770492886
H         1.67461169246620    1.48740111707193    1.78275853313644
H         4.38855532888641    0.24086541033363    1.32201551165636
H         4.45216270254135    2.52680707397665    1.09983499998410
H         2.82397944764904    2.69901955602942    0.25737330857862
H         5.58865504687566    2.45791552956138   -0.99859617368547
H         4.06618111547117    2.96644883246315   -1.69666413245782
H         4.95889909673580    0.41893575444311   -0.47719125918970
H         1.94345568986662   -0.59946471558161   -0.07154987696808
H         3.22683438800938   -2.26921269397217   -1.07027608727444
H         4.48211524384657   -1.82315934493238    0.12833259186142
H         5.52738542423534   -2.47247329696962   -4.33562794408035
H         7.23762632886392   -2.85313595948812   -4.66235250854592
H         9.42051314672728   -1.36341686711564   -1.00029517347213
