32
 energy: -49.226650856063 gnorm: 0.275003621818 xtb: 6.4.1 (79825abcba525fcdf90b791dcacef51065a7a4e7)
C         2.58116334621876    1.19929907921556    1.95057138842800
C         3.54832479195153    0.90090506407553    0.77465641733615
C         3.68337128504674    2.18088656937932   -0.11323830984138
C         4.38076167808879    2.12394997076060   -1.53441051449523
C         4.37295264843612    0.48889418919853   -1.48391829905341
O         2.93535532050657    0.21061931086973   -1.36145260128563
C         3.05015161615583   -0.30645853991354   -0.00711696792761
C         3.96124674712361   -1.51235925724697   -0.33915843069869
C         4.63372896755598   -1.17033282048262   -1.70338112673024
C         3.90295988988816   -1.71286212941443   -2.92076715631313
N         3.67073253544371   -1.91738535120294   -4.14317496567517
C         6.06781266195096   -1.47060696699360   -1.84968818636623
C         6.88230613120287   -1.36625463149102   -2.96177701840570
N         6.54270520273300   -0.92125606260894   -4.18399963190388
N         8.18378496337013   -1.55615234567568   -2.65423999372929
C         8.43925235570606   -1.77057698792200   -1.38479559812374
S         7.00846009849876   -1.82481690414393   -0.44325046203042
H         3.12532367678961    1.78488739758623    2.70227205511192
H         2.23141924597259    0.23723132203265    2.34658284588048
H         1.71721133018269    1.76952581446614    1.58229782248237
H         4.52622251271591    0.62162958566952    1.16692961106606
H         4.12563381483178    2.99953007736035    0.46275055309862
H         2.64143733246444    2.50436246590642   -0.28985446520309
H         5.43622796560207    2.42327891222345   -1.54542458023028
H         3.78945930217144    2.56608289592087   -2.35241694734299
H         5.08005609368737    0.40015168439798   -0.63530485426310
H         2.03013736059155   -0.54042327138857    0.32589282019995
H         3.34870498879607   -2.41770907507441   -0.39629970818700
H         4.67796722244597   -1.68683402546247    0.47303485350566
H         5.58291168232739   -1.15505516061325   -4.42360596971815
H         7.34008543248141   -1.01080962671781   -4.80725476899361
H         9.39993225995856   -1.91882162231413   -0.90991771245305
