32
 energy: -49.230076366198 gnorm: 0.281054084819 xtb: 6.4.1 (79825abcba525fcdf90b791dcacef51065a7a4e7)
C         2.60226264280813    0.66344560579305    2.16238641081934
C         3.51417910796169    0.67166223813354    0.90717443033046
C         3.64726175937757    2.09047597741937    0.26358773428106
C         4.35364446037191    2.31827785895783   -1.13586049619457
C         4.25763617108890    0.73878995345688   -1.55061127489333
O         2.82608820769977    0.52214504395628   -1.29989982663246
C         3.01023973276332   -0.32190839321196   -0.13009868522221
C         3.89410819078710   -1.41774383315233   -0.77233201171013
C         4.68142306553787   -0.84171949864221   -1.98832923509042
C         4.10217754421156   -1.14355415374073   -3.36083085541326
N         3.66020261809551   -1.26255506594874   -4.53579344372865
C         6.11168659530405   -1.19173034685704   -1.98609531771814
C         6.85783679979146   -2.04572054243698   -2.77665917191504
N         6.48209019660738   -2.73971947910282   -3.86494249846300
N         8.17267856981671   -2.17710165490192   -2.49662804028219
C         8.47561272952576   -1.54867672144739   -1.38485306741209
S         7.14876381419787   -0.71916228725788   -0.68628778450780
H         2.92469188032432    1.34166144485834    2.96247434236922
H         2.62224718154509   -0.36931057887338    2.53351396391327
H         1.59699505845995    1.05566989864784    1.95551876578570
H         4.49634511706155    0.41911575857991    1.30683329603175
H         4.12213325034744    2.72803764299423    1.01561745307468
H         2.61093642481294    2.43658020061377    0.09716072166600
H         5.37999466503529    2.67364528535317   -0.98078808696971
H         3.83836761575023    2.99454419671178   -1.83686560303615
H         4.90067540000807    0.49606896892607   -0.68135735662911
H         2.02097033150943   -0.70726157783866    0.15081601925000
H         3.29981471187352   -2.28423678601550   -1.07914800062570
H         4.58100785368180   -1.86865562567999   -0.04525909373638
H         5.54442495910473   -2.71798118155269   -4.25684575073739
H         7.20625205897384   -3.11820266682989   -4.46878196986620
H         9.49612027550935   -1.52520292429610   -1.02651706931842
