32
 energy: -49.224551318790 gnorm: 0.287886891995 xtb: 6.4.1 (79825abcba525fcdf90b791dcacef51065a7a4e7)
C         2.42065222337457    1.01128823271915    1.95648676351689
C         3.51668220938169    0.74348645559560    0.89149063839085
C         3.77728929040243    2.10813346581399    0.17401608128511
C         4.33339714416960    2.14303428850222   -1.30883642530935
C         4.36362175696286    0.51152576255934   -1.42409375741049
O         2.90761613330589    0.35596409205263   -1.30174582627250
C         3.04597445522435   -0.36106925977735   -0.04417163472649
C         3.91656443805748   -1.52945612593985   -0.56521637068739
C         4.69032193582501   -1.09577967609203   -1.84722341103376
C         4.01749569807149   -1.45563085680647   -3.16183445441731
N         3.32651400898012   -1.55445519038336   -4.21198595985383
C         6.13215504032754   -1.39458290312666   -1.84670353820431
C         6.91198560050977   -1.72579749961261   -2.93903671642104
N         6.58266982822988   -2.12043648693305   -4.18120893488582
N         8.23198585175897   -1.87961911078460   -2.69732291496030
C         8.50143271047896   -1.46728949675546   -1.48072385449446
S         7.16395491585437   -0.99808485168047   -0.51759569722727
H         2.74993337012361    1.66518036933269    2.77384655930024
H         1.96662072527526    0.11962324647803    2.40760684728294
H         1.56355598159751    1.50136402284836    1.47439881805273
H         4.37767772456992    0.28762240179200    1.38039931122707
H         4.55243125090545    2.59126957409453    0.77673570985942
H         2.91992069247563    2.80400996508081    0.22018172860379
H         5.31336596293339    2.63554805613820   -1.28020941827268
H         3.65904221579341    2.58551187626890   -2.05964503170547
H         4.89737077305255    0.42683749577733   -0.45664599435577
H         2.01189683800341   -0.65123646634792    0.18506747388892
H         3.28068311681219   -2.41639608633681   -0.64961584780523
H         4.66645015413240   -1.80114432978679    0.18820552368779
H         5.63110411986580   -2.15345528806248   -4.53717139142767
H         7.36127111756475   -2.21668829104959   -4.82680761506841
H         9.49154364311631   -1.65854770898588   -1.08894330759625
