32
 energy: -49.232850357872 gnorm: 0.280484630180 xtb: 6.4.1 (79825abcba525fcdf90b791dcacef51065a7a4e7)
C         2.21737529202231    1.06445023952053    1.88249745118502
C         3.32148758420173    0.86655093607215    0.81058878786454
C         3.44751278458658    2.23163881591630    0.05852497061045
C         4.28193368881440    2.28948678235432   -1.28673371705949
C         4.44939371769970    0.66989691053541   -1.44454260143408
O         3.03098224989669    0.29285973701480   -1.37331964598249
C         3.05835275344268   -0.34812735607062   -0.06826826612387
C         4.13092405777148   -1.42236069739127   -0.36852805955210
C         4.84980744911819   -0.96013061658135   -1.67231793129035
C         4.02269365194985   -1.35326925194063   -2.88546056577424
N         3.41159543598055   -1.72321751952831   -3.92456470195164
C         6.25534306461293   -1.35333959396075   -1.86731203973564
C         6.97178822721781   -1.59092634718845   -3.02545256014884
N         6.53751540378844   -1.47524559029419   -4.29241969299485
N         8.26288056560250   -1.93357591768337   -2.82505504569701
C         8.58081468669300   -1.96996397186408   -1.55213541067121
S         7.28778713484983   -1.57602836421452   -0.49880251749169
H         2.46282864730602    1.93111729686023    2.50917033117445
H         2.08875815163721    0.20203219595740    2.54914063064312
H         1.27325504672792    1.33833049724160    1.39175963725328
H         4.18017109283001    0.63934811253929    1.44241037128864
H         3.77744390972639    2.91771056053033    0.84464679465522
H         2.44029375846221    2.59253520746659   -0.21845862285649
H         5.28878093595965    2.72030193910333   -1.22051340633644
H         3.65621715693965    2.62001447440421   -2.13141402385535
H         4.88141884311377    0.58165021626696   -0.42789019863410
H         2.04284846892616   -0.69428246864022    0.16623500645263
H         3.61136377954112   -2.36939144216968   -0.54550465981658
H         4.92034726879946   -1.59886220034296    0.37271807909522
H         5.53531086673167   -1.53919793725325   -4.44981403462176
H         7.05832151554741   -1.93789748133590   -5.03201164527539
H         9.61194837961930   -2.18778978820419   -1.30778611141760
