32
 energy: -49.224230375907 gnorm: 0.283977553773 xtb: 6.4.1 (79825abcba525fcdf90b791dcacef51065a7a4e7)
C         2.31179235361459    1.29393538530802    1.76569622829866
C         3.36746725441374    0.97176346585034    0.67529628884374
C         3.54245776396353    2.29160989997931   -0.14466161641399
C         4.22631919370913    2.17594626379777   -1.56883893510066
C         4.44189456656225    0.55600301632134   -1.49583909660566
O         3.01097503595991    0.22327000232980   -1.46619333557396
C         2.98785489560041   -0.28059405382195   -0.10224349301801
C         4.03642004601651   -1.40874120671340   -0.25170097414423
C         4.82347782608085   -1.09308791585266   -1.55983744909632
C         4.05317755116446   -1.69266979166743   -2.72496804744145
N         3.40888130631207   -2.26350875160378   -3.64641548273724
C         6.24418789738981   -1.44815980205240   -1.71369839802572
C         6.97088902508546   -1.18358104873513   -2.85953178811834
N         6.52991107818741   -0.46070986849913   -3.90364689227664
N         8.27370555862586   -1.53837025798973   -2.82374052717095
C         8.59195459114652   -2.10974410691401   -1.68576861569993
S         7.26082066501252   -2.33090276988397   -0.62946041596060
H         2.40383961889517    2.33509269842196    2.09975728040018
H         2.44041239600584    0.67180365676872    2.66075453719500
H         1.27371732973126    1.10078439750124    1.46190357609085
H         4.30199079437375    0.76963418730953    1.19871439316843
H         4.18418435058012    2.88610232053313    0.51283534814071
H         2.59398274815056    2.85249434776814   -0.22986761600097
H         5.13101717141908    2.79652056862405   -1.55712137533558
H         3.53115746866459    2.43260600862715   -2.38439426701681
H         4.83184546706873    0.50396361428594   -0.45986347402247
H         1.96353919246380   -0.61314314237723    0.11282054482824
H         3.56712955000011   -2.39596574563926   -0.19438638713547
H         4.71818062148030   -1.35054500073108    0.60597223855562
H         5.51424736883675   -0.46317251950378   -3.86244027162091
H         7.01222109469799   -0.59092747654989   -4.78835162255723
H         9.62483721805860   -2.28077614133761   -1.41320141121508
