32
 energy: -49.230614805563 gnorm: 0.279819409378 xtb: 6.4.1 (79825abcba525fcdf90b791dcacef51065a7a4e7)
C         2.30679191308224    1.11672034090085    1.88402310351814
C         3.42952160318190    0.79355938593692    0.86311110374362
C         3.75070141458988    2.11516614644439    0.09165380990483
C         4.39532357433337    2.19800014708681   -1.35296599197895
C         4.39886275831021    0.56831375334339   -1.49483775062498
O         2.96195112563929    0.31284929542447   -1.32412249186478
C         3.01303663791911   -0.36142702884063   -0.03667757650944
C         4.03468506459805   -1.45496415816646   -0.43031885142527
C         4.74423800410903   -1.06807841419922   -1.76342501702786
C         4.00478775734894   -1.48693562324493   -3.02364810169022
N         3.30168933981376   -1.76171563299312   -4.03369201530005
C         6.16812446138371   -1.42575699086171   -1.87647264547225
C         6.94916288759297   -1.60046845387110   -3.00363079133302
N         6.51673360997072   -1.69267140045854   -4.27315203022925
N         8.27671104734356   -1.62785805052831   -2.75593539178893
C         8.50360388209777   -1.57616972489053   -1.46420068483239
S         7.13316897058722   -1.45487111724921   -0.44253023917319
H         2.70627510822351    1.95158887053501    2.47350232426915
H         2.13889716143731    0.29729365380606    2.59470702514060
H         1.44941371414322    1.42270679977560    1.26882236678641
H         4.26136022270653    0.53166441395305    1.51703200018638
H         4.42960802100231    2.67540270425682    0.74185172469014
H         2.81803576141142    2.70536045696386    0.03454217358445
H         5.42277641300268    2.57387610235275   -1.43534402008411
H         3.68401632714805    2.67534382943686   -2.04610346769260
H         4.89012003968281    0.46898520583159   -0.50649802277508
H         2.04356917946285   -0.79988899191280    0.23525633389628
H         3.50248517308613   -2.39035086510731   -0.63018334676743
H         4.83758759888018   -1.63302159916633    0.29592538530104
H         5.53139335689170   -1.83333479561154   -4.47953809647964
H         7.20141489464678   -1.90397301163108   -4.99346113245187
H         9.50257744694749   -1.83291087782010   -1.13781570148966
