32
 energy: -49.227719087334 gnorm: 0.276662412560 xtb: 6.4.1 (79825abcba525fcdf90b791dcacef51065a7a4e7)
C         2.41107679099515    0.78820908165430    1.94677310317966
C         3.48992925342610    0.78153947471727    0.83176227313863
C         3.59485772291038    2.22140991054813    0.23117056671596
C         4.27645210134654    2.33037981328514   -1.19462052191464
C         4.39621186189650    0.72007019283795   -1.45649524156758
O         2.96680044785679    0.39949879781526   -1.34187490908798
C         3.09404686937791   -0.35226975246556   -0.10355948208880
C         4.07126180755995   -1.42446844736863   -0.64206049023814
C         4.78663261572786   -0.86483621219957   -1.90909417821921
C         3.98008472728822   -1.26851099440513   -3.13257993666679
N         3.27964915328441   -1.59579483629958   -4.12873024030067
C         6.21718026369253   -1.20218170107668   -1.99796373218528
C         6.99876668485612   -1.77980401366392   -2.98107396211894
N         6.49018664453472   -2.20005166611004   -4.15236337659338
N         8.25159059325874   -2.11976611204589   -2.60778407773330
C         8.49688758795829   -1.78293891855333   -1.36315263926175
S         7.17286609816842   -1.04216256964668   -0.56638843875524
H         2.51674383516671    1.68346815269992    2.57241174316062
H         2.57418399024165   -0.11934684635547    2.54213741078665
H         1.41911657988858    0.74492361308635    1.47630701190623
H         4.42977471759873    0.46016399123355    1.28072252304641
H         4.15642641226540    2.85317081134911    0.92619234954865
H         2.59775998167025    2.69389591997148    0.16785116174109
H         5.23776495769714    2.85312492812463   -1.11497544077612
H         3.59721640037273    2.85320206710839   -1.88711622498645
H         4.97297578865959    0.42387533714558   -0.55781438795569
H         2.15546989092676   -0.87533331290029    0.12346885362083
H         3.46379112423984   -2.31269151391346   -0.84248499206608
H         4.76278644498440   -1.71105766628409    0.16009156157855
H         5.54644805723749   -1.87489398912644   -4.34447475024065
H         7.13776370055424   -2.64273294123100   -4.79808721893088
H         9.42783969080823   -1.90463471771804   -0.82564945577899
