32
 energy: -49.229686141905 gnorm: 0.275943502140 xtb: 6.4.1 (79825abcba525fcdf90b791dcacef51065a7a4e7)
C         2.10336887471725    0.82174988970585    1.74958803804757
C         3.38604093123448    0.78135669325548    0.87761495521474
C         3.71153282122202    2.18004081993200    0.25899956655150
C         4.51298175652244    2.30166138211590   -1.10196098051289
C         4.45663932246631    0.70262299564276   -1.44243067328399
O         3.01269361191788    0.43663989413467   -1.38416748703435
C         3.04996093758234   -0.30527860505130   -0.13399118428473
C         4.07461687543832   -1.41707300158141   -0.46343897499932
C         4.80760467625970   -0.92594627723802   -1.74867880436260
C         4.01583415269810   -1.29323573977429   -2.99310161449568
N         3.33004944289031   -1.52986003042342   -4.02448341469698
C         6.22086952178397   -1.30022616279966   -1.92407374671699
C         6.90459589364933   -1.85486905098378   -2.98986926864801
N         6.36289688200953   -2.22794079420506   -4.16228569737896
N         8.19769140408606   -2.14599493928096   -2.72979807503889
C         8.54002577623171   -1.76076204649615   -1.52268027324489
S         7.31258489896092   -0.97092153712552   -0.62481805711827
H         2.15142185079424    1.64203957792291    2.47683887203119
H         1.91442180152174   -0.09162593220988    2.32817596668222
H         1.20212698624850    0.89183029822369    1.12504914398250
H         4.19740492711595    0.52163143544839    1.55760632332073
H         4.27603661518932    2.77802241467613    0.98100371280673
H         2.74245722706998    2.62391874547687   -0.03309829938530
H         5.57211739770322    2.58415175008882   -1.05549495378348
H         3.99384037297695    2.96431639195330   -1.81304121971672
H         4.99738505142480    0.54602270845253   -0.48792257785722
H         2.05619417945190   -0.74105813775622    0.03508846662449
H         3.59864474725010   -2.39065904447755   -0.61742461404321
H         4.77483568182258   -1.45879993408972    0.38020793446257
H         5.35803439407381   -2.10609371474269   -4.25546017179972
H         6.85168987508684   -2.78926335335998   -4.85386390950065
H         9.55187964511004   -1.90001162823708   -1.16609555617976
