32
 energy: -49.229151660776 gnorm: 0.277288586109 xtb: 6.4.1 (79825abcba525fcdf90b791dcacef51065a7a4e7)
C         2.56270306864371    0.96842136872586    1.96911013699756
C         3.53207230748963    0.67796328634318    0.79302610418779
C         4.00591839704034    2.05636487392285    0.22696409052710
C         4.68340147342803    2.13673292691623   -1.20268035036879
C         4.42346337122017    0.55114644044589   -1.50987008555843
O         2.95598138008160    0.51965728674406   -1.44185638351293
C         2.90026324348164   -0.26657237525230   -0.21976346206257
C         3.76802729100471   -1.47580737398474   -0.64317660623553
C         4.62203610491107   -1.08790951719021   -1.88837626818393
C         3.84660290220719   -1.58012212989247   -3.09949984316047
N         3.39330697374889   -2.04192789970673   -4.18176522832946
C         6.06365204588532   -1.38755258052428   -1.87724638548030
C         6.89614192350460   -1.65027644864621   -2.94914534166973
N         6.52467410134261   -1.76815913137735   -4.23572840034140
N         8.20467649648099   -1.66779165821612   -2.61460415643725
C         8.41348311189316   -1.45704897378932   -1.33604328180552
S         6.99013696716201   -1.12369415229664   -0.44185313879371
H         2.92319963974357    1.77428845005405    2.62079910102381
H         2.34752127859599    0.06659415643979    2.55658341808403
H         1.55912063040870    1.25799904566110    1.62828159684815
H         4.37348063708621    0.19376454111505    1.28874840806478
H         4.63299194053475    2.49392030979294    1.00981817648090
H         3.09023444506722    2.66297810940839    0.10449137359965
H         5.73593555525679    2.44585881607746   -1.22115725990944
H         4.08742887255472    2.70171589072785   -1.93743572597382
H         5.00052814836191    0.35750635143855   -0.58384899781444
H         1.88074776225212   -0.62932302222536   -0.03250895674663
H         3.13259731697987   -2.36414574439925   -0.71538818675698
H         4.52607053127603   -1.69448878431978    0.11927766334604
H         5.54804755886223   -1.74831989457461   -4.51694684422198
H         7.23514545522342   -2.19927145932596   -4.82024072017221
H         9.36372616013612   -1.50818279918987   -0.82144165031122
