32
 energy: -49.227499730881 gnorm: 0.282909221398 xtb: 6.4.1 (79825abcba525fcdf90b791dcacef51065a7a4e7)
C         2.54067517644091    1.43284212052385    1.85097202524934
C         3.51310258362660    1.05306814677398    0.70320334806272
C         3.45858624143407    2.21980977408391   -0.33635867420002
C         4.07832327692324    2.06149539916279   -1.78556125938110
C         4.18213166017918    0.43426851912332   -1.65374950911428
O         2.78407964840697    0.14313951666405   -1.30760604645469
C         3.11582658196761   -0.26264673402996    0.04887992502600
C         4.11003690069620   -1.41251021077215   -0.24077890556748
C         4.74503425518169   -1.16329772962561   -1.64255973405384
C         4.04292631461204   -1.98430172341922   -2.71185254717757
N         3.65333168035432   -2.60588406471803   -3.73747019257261
C         6.19694811239552   -1.38960768600329   -1.73687992372363
C         7.06410823515169   -0.90600190589492   -2.69874756622550
N         6.79045254450022    0.08939172863517   -3.55984263048766
N         8.28126560303239   -1.48892983984128   -2.75540686620303
C         8.44535615629208   -2.26081471771624   -1.70659867656451
S         7.06540174286586   -2.47993104632472   -0.71446484053122
H         2.73423378854714    2.50772196479170    1.95702116812983
H         2.91536321924037    0.96677882023107    2.77136012288106
H         1.49428758818374    1.15455991927888    1.66434655422592
H         4.46226511725929    0.99007286584621    1.23544303304409
H         3.87041276728301    3.11030485540959    0.14836179219672
H         2.37726524824317    2.36739064206206   -0.51077507361958
H         5.03196034843025    2.56450329282648   -1.98875475256536
H         3.26529707037977    2.33417421716906   -2.47757946467322
H         4.76363850851114    0.59514825999326   -0.72424276292943
H         2.16135581641062   -0.59947494778037    0.47502122662943
H         3.61839417391923   -2.39032120523897   -0.25821209561648
H         4.83104505660370   -1.43652842295385    0.58587578828376
H         5.82558457382471    0.40635582578977   -3.60274221569081
H         7.36357191182449    0.21619455209852   -4.38914189358875
H         9.37169480367557   -2.76597069673108   -1.46763109276498
