32
 energy: -49.227889557236 gnorm: 0.275161480702 xtb: 6.4.1 (79825abcba525fcdf90b791dcacef51065a7a4e7)
C         2.63770708706880    0.73665806531609    2.06614194137508
C         3.58105586442437    0.71054845696229    0.83462757161556
C         3.70253553210246    2.10029457526428    0.12837289098699
C         4.49876163995422    2.23397289762659   -1.23452096485696
C         4.36774829739827    0.63275220679214   -1.54265351203631
O         2.92059693755425    0.42252309718553   -1.39885681126194
C         3.08972452475986   -0.32745858596306   -0.16447598025427
C         3.89077545982167   -1.52612226945820   -0.72667273522580
C         4.65986478886655   -0.98058106493704   -1.96812527348039
C         3.94220358658898   -1.19290395387455   -3.29110359178609
N         3.16183588346141   -1.12851765182514   -4.27949662840641
C         6.08983582971200   -1.32903349579422   -1.92419240803252
C         6.94667274411873   -1.94295966137672   -2.81859487431565
N         6.55865452720720   -2.52178171855971   -3.96819808219309
N         8.22724685718982   -2.13264958072653   -2.43306278411354
C         8.42520553733216   -1.57400695211547   -1.26196869352338
S         7.04793140606501   -0.81610000411883   -0.57983328023926
H         2.94943781706586    1.58399569410681    2.68977719638008
H         2.86542178076972   -0.18192323456076    2.62208689686277
H         1.58270574995383    0.88154227894894    1.79562802618601
H         4.50892781891059    0.39932440060755    1.31457572198481
H         4.18479297577338    2.81647887807302    0.80071529740831
H         2.69379507333952    2.52767378256750   -0.01738712789940
H         5.50309688421815    2.64890869481089   -1.08330189883562
H         3.96585753508738    2.94809601972055   -1.88282330902728
H         4.95054877768299    0.45557527582769   -0.61692826610669
H         2.09678261333465   -0.73892548069038    0.06096903620959
H         3.11756189050067   -2.22027361234601   -1.07080282995468
H         4.55526957940037   -2.03992072783239   -0.02080707565105
H         5.67168866453989   -2.18635236767411   -4.33433402253084
H         7.33978583603478   -2.73330937819580   -4.58250416756334
H         9.39857423584450   -1.52656402324883   -0.79218799535534
