32
 energy: -49.229931471980 gnorm: 0.283202900873 xtb: 6.4.1 (79825abcba525fcdf90b791dcacef51065a7a4e7)
C         2.47647335850201    1.14386935371062    1.96598544782011
C         3.47547362090145    0.84567711206708    0.81694405080877
C         3.71529218318565    2.12928521852734   -0.04316323405339
C         4.31507824140469    2.13115179015294   -1.50930741916849
C         4.29927503275181    0.49609924339088   -1.55800328990608
O         2.86258810575578    0.26619649035104   -1.35258610017209
C         2.99546570526817   -0.32429671530133   -0.03030246287303
C         3.97732249355338   -1.46460154763502   -0.39114113108348
C         4.72121155871102   -1.13623970547647   -1.72122592077985
C         4.02325293882422   -1.63113584741663   -2.97753870772783
N         3.43944187574182   -2.00828827873572   -4.02966076729843
C         6.16824965313686   -1.37719998014858   -1.84844722782247
C         6.99229624267039   -1.31959727450989   -2.95689647951541
N         6.53978505430327   -1.22019073443865   -4.21885234254111
N         8.30338004911562   -1.51922893182569   -2.70058852604105
C         8.46782028732009   -1.80201419457049   -1.42947779256587
S         7.09477464206884   -1.65205150293208   -0.41514424528086
H         2.84226445364340    2.03690804108251    2.48824669836513
H         2.46882755531494    0.38840332373534    2.76218454252908
H         1.47168921607662    1.20324780942095    1.52544026155187
H         4.38480522048886    0.51383412960511    1.31809600460278
H         4.36889489377830    2.83133621606404    0.48358566477138
H         2.73114818149226    2.62227683027267   -0.14254199486496
H         5.32878411909582    2.55045237972126   -1.52707299232846
H         3.74318674266867    2.70674866509135   -2.25488296694789
H         4.90725185420263    0.44350703814751   -0.63300948473147
H         2.00887935909674   -0.68783715394669    0.28679346386826
H         3.47298841322376   -2.42000640482518   -0.56715114046312
H         4.69945518760365   -1.69234359084710    0.40286488424140
H         5.57535336061578   -1.10822574792726   -4.51987087996791
H         7.23444612526116   -1.44526463421898   -4.92530104661597
H         9.44537810046024   -2.05726800029465   -1.04267348034609
