32
 energy: -49.228789565420 gnorm: 0.280152711148 xtb: 6.4.1 (79825abcba525fcdf90b791dcacef51065a7a4e7)
C         2.52249672792020    1.38063188130329    1.81065897811239
C         3.50808196514051    1.11834215900278    0.64145321741279
C         3.54415625330068    2.28924134090095   -0.39423061708027
C         4.03404449131254    2.05525483868797   -1.88237892827520
C         4.30736166434583    0.45958320437676   -1.64754368011984
O         2.89179665460514    0.16687219072272   -1.38369372871058
C         3.10436821171311   -0.20469028538374    0.00610027036552
C         4.09028746560228   -1.37861125998390   -0.20464882840717
C         4.74219827322875   -1.17700479664852   -1.60632108689035
C         4.05255022456635   -1.97856600426824   -2.69823474282950
N         3.49567308551899   -2.65512134142626   -3.60498766608220
C         6.17720806097694   -1.49104899752558   -1.70775826151333
C         6.99427069110498   -0.89496844224460   -2.65016328868440
N         6.66053819571537    0.15312428379663   -3.42301832194072
N         8.27129102459367   -1.33466054305337   -2.66958603054180
C         8.48272458494390   -2.19724186760517   -1.70315967427726
S         7.10896678844144   -2.59611462336112   -0.75959953355464
H         2.79094761404178    2.31357537697852    2.32215540196735
H         2.66304783996747    0.60740092671588    2.57687021219921
H         1.47371750081664    1.26354755904642    1.50479883191503
H         4.47010000899712    1.01822792793159    1.14410163051833
H         4.16449796751836    3.03317190331776    0.11496481072711
H         2.50487818645840    2.65801103213266   -0.46748563002886
H         4.89463951388921    2.65962557509085   -2.19517345786044
H         3.19120213532370    2.25438113168703   -2.56371586989553
H         4.93884052223068    0.50367053326392   -0.73798001845917
H         2.17598141196697   -0.65715245618341    0.37951697125170
H         3.49734149253977   -2.28851877026795   -0.06821489406716
H         4.88863266663593   -1.48707180715992    0.54011211880926
H         5.67139069313562    0.17492153466621   -3.65623263549504
H         7.39256791998741    0.44755481906008   -4.06311611164970
H         9.43016313552735   -2.71125219725648   -1.61072086549764
