32
 energy: -49.227918021127 gnorm: 0.288010493522 xtb: 6.4.1 (79825abcba525fcdf90b791dcacef51065a7a4e7)
C         2.06381010061922    1.14594502700856    1.72449114381416
C         3.30598127312077    0.83619046960468    0.84797579223184
C         3.79630542576796    2.17057303880056    0.19685933678140
C         4.48081804895426    2.20178626667982   -1.23135415295986
C         4.45794049711070    0.57542352977680   -1.40582113040798
O         2.99907383626305    0.40025453860336   -1.39379128260221
C         3.04035536093761   -0.30559433841326   -0.12302541152687
C         4.02073541886716   -1.45908832686196   -0.44372616672766
C         4.83842032649178   -1.04770178689774   -1.70565742815494
C         3.95000254734615   -1.47215108908783   -2.86365004338860
N         3.17492407504428   -1.80139995825366   -3.80220675066670
C         6.26741941086015   -1.36434209208090   -1.86648931045557
C         6.96445911369334   -1.66121735831274   -3.02279002027684
N         6.45391827105134   -1.53027480196587   -4.25947216882066
N         8.28466153282514   -1.87206153372431   -2.83018258934409
C         8.62117223327522   -1.78916267275497   -1.56423672956039
S         7.31501695662472   -1.48698689629628   -0.49687367494876
H         2.25180497341896    1.75257205009248    2.61933169859415
H         1.56367983766167    0.26688258670325    2.15091736856440
H         1.31237021938192    1.65001915514582    1.10123805458664
H         4.08537427797942    0.50171034076129    1.53268492105150
H         4.44933500461249    2.71304506131600    0.88737579721401
H         2.93775621904539    2.83627511056415   -0.00609458540563
H         5.48698229645522    2.61533742691388   -1.37396253660684
H         3.73313515014492    2.69210988584584   -1.87540972655951
H         5.02582961444253    0.47554246139267   -0.45949084103243
H         2.02439989605487   -0.70589332258346   -0.00615234098525
H         3.35778077045501   -2.28645110117507   -0.71592610395946
H         4.68360369919048   -1.76559155911055    0.37508335451830
H         5.50502009844740   -1.83280912442410   -4.46279962972103
H         7.10208611852876   -1.73206065205071   -5.01541062504192
H         9.60413663876725   -1.97682310951494   -1.15319427868961
