32
 energy: -49.228214907863 gnorm: 0.274028418537 xtb: 6.4.1 (79825abcba525fcdf90b791dcacef51065a7a4e7)
C         2.73146793643365    1.04333816749350    2.02740049494082
C         3.64363904760967    0.86784043670240    0.78467740403305
C         3.75646989675410    2.18705176959226   -0.04712660766434
C         4.34601272593547    2.12655077924999   -1.51617543258880
C         4.41080308849432    0.49441326090351   -1.60532244623568
O         2.96586746629593    0.31810216718681   -1.40483234399587
C         3.02672382180936   -0.23658221604386   -0.06192712030491
C         3.89663099414495   -1.45499636635600   -0.45342536937079
C         4.60533066689755   -1.17532239707147   -1.81351552567474
C         3.93683635821481   -1.64541745705432   -3.09512241678091
N         3.43756907731679   -1.98364055263998   -4.20254169325139
C         6.04380866042706   -1.48917023333058   -1.83465719604094
C         6.90733435325084   -1.46159653317422   -2.91382060988792
N         6.62664510033584   -1.21785525835785   -4.20571239100242
N         8.21335181374165   -1.58497059093853   -2.59197506676903
C         8.38123311691708   -1.74829064574672   -1.30051348367782
S         6.95342702241978   -1.58208646034502   -0.36758174849543
H         2.97250845047907    1.99824374891679    2.51127324419669
H         2.83270111385872    0.23689620163644    2.76504782178576
H         1.66675765991635    1.03756798277847    1.75618883018342
H         4.62286910964658    0.61017216186630    1.18825211705524
H         4.36943917281467    2.90544644954895    0.50578772430385
H         2.75073712398681    2.63859703313907   -0.12500309488218
H         5.28836375162791    2.67584041389279   -1.63442789585580
H         3.65475349491990    2.44758714255790   -2.31200888400656
H         4.90899960876355    0.37093871554091   -0.62319742439225
H         2.03094042335691   -0.49349119402060    0.32340039780792
H         3.22456183132497   -2.31787368317431   -0.49697536533124
H         4.70824093800550   -1.57888904215614    0.27439845993387
H         5.64146214942804   -1.35403735508446   -4.41582142869708
H         7.26498542340999   -1.63913340188863   -4.87453852266947
H         9.30625608333372   -1.73481695075259   -0.73967274915626
