32
 energy: -49.224224738258 gnorm: 0.280502853842 xtb: 6.4.1 (79825abcba525fcdf90b791dcacef51065a7a4e7)
C         2.22325469913231    0.93937094320403    1.92292674684075
C         3.29718020712143    0.90537078517319    0.80366615804066
C         3.29220067202983    2.21000818753883   -0.05821765888371
C         4.23647975554962    2.34706174427206   -1.32268549656725
C         4.42844571079757    0.72355040480496   -1.38080485840260
O         3.01992952041545    0.30505324338646   -1.37286133549041
C         3.09326861072404   -0.32753748688339   -0.06548876082301
C         4.26685875934981   -1.31146285444817   -0.28711785904298
C         4.88199599979226   -0.88532087918552   -1.65471692212779
C         3.97500157919666   -1.28684646605662   -2.80646714449579
N         3.33119725749658   -1.79726254360198   -3.76303996961947
C         6.28918626503202   -1.27500603126524   -1.84478899252943
C         7.00682985346464   -1.47157546507244   -3.00985497170679
N         6.50235273811481   -1.33203510968477   -4.24808434082876
N         8.26207981824443   -1.96200105292234   -2.91865419437375
C         8.59767452016475   -2.12836057308423   -1.66070693843398
S         7.36065818384997   -1.69769801746898   -0.55574719150942
H         2.18977300822297    1.93538219743493    2.38218549161561
H         2.22579663650362    0.10928868337337    2.64103353575755
H         1.29050549935396    0.78675191221951    1.36267377040117
H         4.26779892411261    0.81744289793293    1.29185157267430
H         3.54633175075505    3.06079567454604    0.58140297650556
H         2.26247435497647    2.35384659872141   -0.43295824684172
H         5.22981116694352    2.68973198785512   -1.00709394996689
H         3.71455712070474    2.74947560960024   -2.20581311716140
H         4.94311342776454    0.65668348745874   -0.40169237950325
H         2.14197648546463   -0.84907847152204    0.10510547825711
H         3.80404509701766   -2.30321727034653   -0.30602611399034
H         4.98453106400433   -1.41845302800437    0.53585673680861
H         5.51311297314074   -1.14575111906278   -4.38943417764468
H         7.05742413880326   -1.79234150535778   -4.96383276002519
H         9.52272577185571   -2.59792795049346   -1.35382256607664
