32
 energy: -49.231157370507 gnorm: 0.285078518135 xtb: 6.4.1 (79825abcba525fcdf90b791dcacef51065a7a4e7)
C         2.66819271276696    1.20258468813790    1.98561747610120
C         3.57395495708745    0.92470248407406    0.75696272079508
C         3.59765311640133    2.19659041808361   -0.15226042943330
C         4.27091956859226    2.06593442168753   -1.58018439951283
C         4.31812576426482    0.43091916542217   -1.55750077439915
O         2.87103090417713    0.33855194442873   -1.31979173403115
C         3.04375956146485   -0.27637638533320   -0.01334592170389
C         3.94001517726690   -1.48630654561567   -0.37018943256998
C         4.66227692046143   -1.21907835812238   -1.72563956642240
C         3.87365176321645   -1.75115268305764   -2.91111732623770
N         3.38417141283571   -2.16106958051165   -3.99850744343150
C         6.10257496516064   -1.50683142396366   -1.83007172587071
C         6.95682415959873   -1.27569500238109   -2.89208155097179
N         6.64638941504604   -0.85221355788280   -4.12960907508293
N         8.27292392372179   -1.47831728811969   -2.66555796075207
C         8.50214299428522   -1.81408941522783   -1.41758108236724
S         7.08028110101075   -1.92696683516868   -0.46774786532239
H         3.00776916000882    1.92888173477988    2.73478933383265
H         2.38734845756837    0.24827697617491    2.44945330347591
H         1.73259599984872    1.58086083685569    1.55114885634184
H         4.55651356313571    0.73179668595721    1.18768646329312
H         4.04897743606270    3.06753266912477    0.33281942196901
H         2.53249366244590    2.46651000451950   -0.27072999285390
H         5.27555749413214    2.50576499369295   -1.61148795903397
H         3.69862974684560    2.45748260537852   -2.43658905255120
H         5.00485339902368    0.47569011738743   -0.68892952775133
H         2.10686441568900   -0.60942878368662    0.45288115162541
H         3.35032389467215   -2.40846716180746   -0.37403831092967
H         4.73205886172345   -1.59021427894687    0.38191269412233
H         5.67899322739831   -0.77747812599245   -4.43265369911924
H         7.41977394960734   -0.64082553718425   -4.75368719567018
H         9.51157877806620   -1.93313045153626   -1.04709493113852
