32
 energy: -49.233601738298 gnorm: 0.283010012656 xtb: 6.4.1 (79825abcba525fcdf90b791dcacef51065a7a4e7)
C         2.32427215237987    1.25948908498233    1.88678524230489
C         3.39946929803135    0.98935558424257    0.80133820969605
C         3.52721746616012    2.22398343374223   -0.14962011506197
C         4.20104641915733    2.16494632762538   -1.58202883193167
C         4.31683351173322    0.53349295519446   -1.55086655240400
O         2.89129248022222    0.21451097988933   -1.39210858436787
C         3.04122008105725   -0.24154174182773   -0.01940674833193
C         4.11725691548490   -1.33157974070407   -0.23964368469835
C         4.79909326218462   -1.08878755624293   -1.62039317387552
C         4.04086968513339   -1.77337693093526   -2.74592622302646
N         3.57322115792875   -2.23554639006648   -3.82191153522169
C         6.22723902690314   -1.41832933950679   -1.76170221072396
C         6.97684708849826   -1.19576733320530   -2.90169541937180
N         6.60560039360182   -0.42195589041588   -3.93638010033762
N         8.25734223747654   -1.61792644900885   -2.82044780885164
C         8.51701064496222   -2.19795350918071   -1.67202649177940
S         7.19394579220914   -2.23427592474009   -0.58354324683849
H         2.61349783454421    2.14026813189968    2.47385833121910
H         2.28954202625061    0.36252087611228    2.51841981258568
H         1.34217630308758    1.40407072936397    1.41584901928308
H         4.34636888067482    0.87761673484029    1.32959251788970
H         4.10922205895501    2.99178509512223    0.36930933283173
H         2.50328452711026    2.57019213651262   -0.38017846785598
H         5.18125107369706    2.64970553872833   -1.67111051456300
H         3.56391740389793    2.48724554116751   -2.42134068294707
H         4.86099195451770    0.66112720351619   -0.59398809575822
H         2.09664739929449   -0.73750378565803    0.24110850789994
H         3.63963337536818   -2.30541692637443   -0.09251206007837
H         4.85409099352727   -1.11154069235129    0.54294559624181
H         5.60659971509274   -0.28356422281257   -4.06335335698833
H         7.19410994607910   -0.60775684012527   -4.74348390642119
H         9.45140436179909   -2.69221592231917   -1.44179963007649
