32
 energy: -49.230089430597 gnorm: 0.283147587301 xtb: 6.4.1 (79825abcba525fcdf90b791dcacef51065a7a4e7)
C         2.18620101265344    1.29233777041349    1.83279897329138
C         3.36085058653310    1.07469832686010    0.84282537690345
C         3.33231789936614    2.30754100888993   -0.11854451150488
C         3.95153646702239    2.18226435931922   -1.57119715195149
C         4.29120454761506    0.59055052484666   -1.40660520541435
O         2.89134615303549    0.17975545666770   -1.23120647549125
C         3.17565652505563   -0.25576297904680    0.12683034525432
C         4.32416560657106   -1.24950398075581   -0.16973014644179
C         4.85578895778903   -0.99311632835918   -1.61263000015713
C         4.00188409056942   -1.56713118701583   -2.73144351740619
N         3.72579724255662   -2.07476518759266   -3.85221286567860
C         6.23778674913794   -1.43465428989000   -1.86421035758203
C         7.04601471036131   -1.29741548330915   -2.97729780125854
N         6.82765860744728   -0.55108522862540   -4.07387994392667
N         8.27194157863245   -1.85682083421188   -2.88425868238120
C         8.49413814719017   -2.37596453885581   -1.69941730481585
S         7.14311587518383   -2.26893045429025   -0.65065697909010
H         2.27438196261154    2.24800801420893    2.36477316575832
H         2.20802495850962    0.54269844154012    2.63422580806296
H         1.21107423004648    1.20570167716633    1.33398139121653
H         4.33507507791870    1.09597248300118    1.33128320971210
H         3.86085481938894    3.06919019471400    0.46289830601996
H         2.30248206848207    2.67791876654096   -0.27254048785112
H         4.85528559960882    2.79093142522820   -1.69961098377986
H         3.25041553732107    2.37227472239247   -2.39979841395772
H         4.91276736133365    0.81384693749060   -0.51676608086445
H         2.32221251852971   -0.86496488148754    0.45328167150582
H         3.99794192792321   -2.29089648404434   -0.08481492120415
H         5.14739527068152   -1.14369628830095    0.54782492133124
H         5.86345320531547   -0.40079965576359   -4.35848318191452
H         7.51540559166489   -0.62372603439825   -4.81819804393933
H         9.33335594284621   -2.99409020854906   -1.40954577198557
