32
 energy: -49.233213406729 gnorm: 0.278337631274 xtb: 6.4.1 (79825abcba525fcdf90b791dcacef51065a7a4e7)
C         2.68305223591902    1.01301839013713    2.04031524746109
C         3.62415705933052    0.80211928399274    0.82497186045779
C         3.82663056963701    2.17032717219018    0.09561672972614
C         4.28214033562189    2.14444638711980   -1.42134292899512
C         4.28126690384469    0.51581312093614   -1.57487071641311
O         2.84639373461856    0.29904462185854   -1.34406509996663
C         3.03690493070811   -0.30729538460628   -0.03607810381461
C         3.85967943300604   -1.51760111791038   -0.53881517373591
C         4.63028799537724   -1.12121681591162   -1.83471637563037
C         3.96942397741709   -1.50345139818640   -3.14907770928856
N         3.41149388995616   -1.88138941271582   -4.21487178649257
C         6.07034053150304   -1.42432796988352   -1.88510177344098
C         6.95443679661562   -1.59060782563143   -2.93474714405422
N         6.64427308840448   -1.77919256211973   -4.22912533885215
N         8.25179828601355   -1.75549426948435   -2.59688187382042
C         8.42585628870914   -1.57963671438810   -1.30788671307215
S         6.99488514420137   -1.21105435808241   -0.44008239966197
H         3.14371872051574    1.67464856935929    2.78470085461822
H         2.43947270669844    0.03873386445049    2.48321371825029
H         1.74115754415118    1.38989821575372    1.61842305514138
H         4.55508587120191    0.46788131425654    1.28302592912225
H         4.59475482601924    2.64961314319747    0.71027646745929
H         2.95500217176101    2.84185274897125    0.19941276761605
H         5.25455599926141    2.60939418879728   -1.62618316908461
H         3.48494940797551    2.57390437255095   -2.04928163235067
H         4.91477632477001    0.43875485350346   -0.66892197020445
H         2.04150075892714   -0.56413124105588    0.35027662268714
H         3.14701337519324   -2.29714120994932   -0.82613932153998
H         4.60827265219076   -1.91382495169777    0.15861044061508
H         5.71937526899139   -1.46818174232209   -4.51392897095898
H         7.43527316519550   -1.94127043079519   -4.84583570788436
H         9.37561436047873   -1.67199030689923   -0.79815955349434
