32
 energy: -49.234278508266 gnorm: 0.278203152743 xtb: 6.4.1 (79825abcba525fcdf90b791dcacef51065a7a4e7)
C         2.46363663335410    1.32239128019594    1.86981993139397
C         3.51631915645227    1.01284722816763    0.77288864147835
C         3.69031907525075    2.25123809940000   -0.16575896630218
C         4.10834636423095    2.15487375440936   -1.69064999989911
C         4.27189886607303    0.52757846369443   -1.65632146294120
O         2.85595883557131    0.29030463021186   -1.34337452650420
C         3.09635412396301   -0.22611833060252   -0.00535728823387
C         4.11453850545023   -1.36161775251645   -0.26705184423100
C         4.71768280905081   -1.10638364447869   -1.68175693258665
C         4.08175685181610   -1.81442851815096   -2.86694082660583
N         3.59582551244442   -2.49134981939376   -3.81334899410248
C         6.15185896736198   -1.43262908098609   -1.75153525082242
C         6.97005725162303   -1.11253230984115   -2.81883100281231
N         6.64238901184113   -0.43586753018190   -3.93325414429728
N         8.25378810960439   -1.51390888456758   -2.69465675089454
C         8.43317957357689   -2.12210885075514   -1.54546481824873
S         7.05184350537432   -2.28106299437610   -0.54383617196970
H         2.87583686137916    2.09446083704170    2.53169424548850
H         2.24450909941124    0.40296293084443    2.42781187909164
H         1.54283156626985    1.67303208529873    1.38364497395942
H         4.43859069586895    0.83834488246939    1.32707375673308
H         4.34865591539498    2.99075268841178    0.30033896886697
H         2.66237516627286    2.65717806153194   -0.16516732071113
H         5.05494358471291    2.68747647549279   -1.84562175152300
H         3.28171880787817    2.47628170135702   -2.34459063857844
H         4.91103749588222    0.59966485938592   -0.75392428766950
H         2.12304358496750   -0.64560301957982    0.28232880419258
H         3.63165721576678   -2.34337311471281   -0.23369177461480
H         4.91955844192528   -1.34850128180852    0.47830610975539
H         5.66720819758877   -0.28198753474281   -4.17537010763053
H         7.32235896828317   -0.57825517659990   -4.67463707782191
H         9.33027166551111   -2.67178220485215   -1.29351970118093
