32
 energy: -49.231293821938 gnorm: 0.281249595621 xtb: 6.4.1 (79825abcba525fcdf90b791dcacef51065a7a4e7)
C         2.35846077219808    1.36654158287661    1.71077825416689
C         3.48324108888814    0.99804228640789    0.70763630085884
C         3.60438032817215    2.22047177781098   -0.25980293679534
C         4.22243228216227    2.06818673485938   -1.71037062413107
C         4.40465648057140    0.44806928456128   -1.57608871903203
O         2.97030286971665    0.19571881864685   -1.38097389847691
C         3.06874650561083   -0.27883908265374   -0.00988806984747
C         4.08714888850638   -1.42196283074071   -0.23498159552734
C         4.77678332827988   -1.20393914749769   -1.61599137192380
C         3.96631225539182   -1.87630825244837   -2.71209659315301
N         3.36453382598933   -2.35812243630796   -3.70997331349680
C         6.20972496687391   -1.53164924380789   -1.70230880216653
C         6.93157695980929   -1.04663457318306   -2.77688829190609
N         6.42529995807945   -0.32049424856496   -3.78861180798799
N         8.25415991486721   -1.31828440666314   -2.73857360329751
C         8.53530508912572   -2.09160293093486   -1.71599527069443
S         7.24695252048885   -2.40566511041492   -0.63057908082767
H         2.51815158907536    2.43672266133121    1.89323191668462
H         2.44462725983123    0.85615824865561    2.67866490456135
H         1.34277252724369    1.10602835585127    1.38259037719159
H         4.37889280116193    0.86811721703854    1.31515954316226
H         4.09081594751820    3.06238270886051    0.24229554013692
H         2.56155966103711    2.51906248713581   -0.47152191967820
H         5.20798386884169    2.55027519643284   -1.70772674936587
H         3.56396359305581    2.42867715931588   -2.51704291373367
H         4.99115622920892    0.47382045296042   -0.63621095248433
H         2.12997788326131   -0.68445239357418    0.39043106957318
H         3.59351753247946   -2.39855888686024   -0.20816640257996
H         4.81912393012264   -1.44813490936113    0.58191201994742
H         5.51142957543305    0.08030509159956   -3.59502040501046
H         7.11506559569654    0.28511811265910   -4.22420229506351
H         9.53439952922472   -2.43384499128620   -1.48132096030124
