32
 energy: -49.225198290608 gnorm: 0.284364359607 xtb: 6.4.1 (79825abcba525fcdf90b791dcacef51065a7a4e7)
C         2.51435359637783    1.30095436251421    1.90947826126419
C         3.48149563466953    1.07828222240351    0.71688878302356
C         3.53006953248844    2.29973239630105   -0.25812265360688
C         4.16609792700082    2.13637683205252   -1.69968722210884
C         4.26885011640655    0.50655119621253   -1.60414551306150
O         2.86250667699780    0.19174949379603   -1.31740723048624
C         3.15408349494252   -0.24462624508885    0.03881246922649
C         4.11162511673526   -1.42647873481843   -0.24558364497351
C         4.72779816179709   -1.12344475862814   -1.64516186271073
C         4.02482243763744   -1.92036919594128   -2.73195844874334
N         3.84047360315644   -2.62435743582115   -3.76174299527894
C         6.16087899868987   -1.42989786169766   -1.78845237716950
C         6.96446092049667   -1.04178309589275   -2.84422395634214
N         6.51720503561490   -0.35367712009332   -3.90895536881504
N         8.25182791310008   -1.43522175207966   -2.73296046010153
C         8.44162795902418   -2.16315152376189   -1.65740256629112
S         7.07366141379179   -2.34647205160308   -0.64168763948083
H         2.48382130215880    2.29970021259475    2.36296755692949
H         2.69979636062145    0.55990601071238    2.69762716887437
H         1.45436642697196    1.11901642122180    1.68470544133504
H         4.47953213109261    1.01503893690156    1.15057120330108
H         3.85147560086725    3.20872819746108    0.25952711121591
H         2.46521024743459    2.54429887914599   -0.42461055369882
H         5.14694709605120    2.62751704118542   -1.67860636405702
H         3.51507579849257    2.49935043267445   -2.51127510839986
H         4.86184092593927    0.67424355932673   -0.68313711706269
H         2.19208881555353   -0.60323817510388    0.42871991827026
H         3.57256973670277   -2.37035376975163   -0.37461870982235
H         4.83004883765514   -1.52534508596980    0.57775129238819
H         5.67894803468990    0.21837516063272   -3.85100536598696
H         7.30400726942933    0.03432213744882   -4.42147937817322
H         9.41586116187377   -2.56674255167661   -1.41579274114171
