32
 energy: -49.231417718857 gnorm: 0.277965098311 xtb: 6.4.1 (79825abcba525fcdf90b791dcacef51065a7a4e7)
C         2.55449783928150    0.64318188731014    2.06801583913206
C         3.53959870337840    0.60940939348137    0.86982888611139
C         3.74828937388468    2.06784108329720    0.34602313618319
C         4.46813853752210    2.28426490816893   -1.04835969369216
C         4.40311523223606    0.70902576566002   -1.48472131030536
O         2.94635587111216    0.54451570492781   -1.38517520003920
C         3.04648125530818   -0.32632935521201   -0.22484055532331
C         3.92451418132518   -1.46297052471343   -0.80072894892136
C         4.69365313412177   -0.87128320684390   -2.02083114694879
C         4.04838921726780   -1.10357496719221   -3.37732118790678
N         3.41339052925784   -1.03610148277091   -4.46464088512156
C         6.13283245811325   -1.18259855328099   -2.01737133679230
C         6.85002967845660   -2.10746005741557   -2.75309541993358
N         6.37438535294137   -2.80821054441044   -3.79707427948341
N         8.14100613266342   -2.27381339498513   -2.39227182266878
C         8.43655834624249   -1.56502914696292   -1.32784504333551
S         7.14279804402548   -0.60919372749901   -0.73693166002381
H         2.58530803330269    1.45155793576516    2.80940435499048
H         2.52016961034272   -0.28473540126505    2.65326062302409
H         1.56993640244610    0.85978443732090    1.63107288235659
H         4.47420629703427    0.24537455186003    1.29661253502975
H         4.27241136388322    2.60893337652329    1.13978114538001
H         2.77596787445210    2.57883730080455    0.22383455260415
H         5.51380685157597    2.61508365742421   -1.01894988096925
H         3.85954588169756    2.78821086426311   -1.81641438331873
H         4.94662139161538    0.37493761989225   -0.57862999916311
H         2.08188208796502   -0.78721817879064    0.02654368419498
H         3.20396699054648   -2.21380678796867   -1.14012175731670
H         4.63902700975345   -1.88404887514056   -0.08243092021603
H         5.53744330926285   -2.43531254748922   -4.23724687409730
H         7.12088580069772   -3.18427887473601   -4.37464828176658
H         9.44388314234327   -1.53222978819853   -0.93463731895497
