32
 energy: -49.229046631162 gnorm: 0.283162315343 xtb: 6.4.1 (79825abcba525fcdf90b791dcacef51065a7a4e7)
C         2.12871798848279    0.45322090167035    1.95009539392014
C         3.31835412326058    0.47781730096020    0.95441615156437
C         3.53123266764642    1.96824038181094    0.53219699061467
C         4.37521434333293    2.36483217853829   -0.74832456127145
C         4.46028364294047    0.83183665434921   -1.31286488319966
O         3.00900950195977    0.60182215525671   -1.31705098398341
C         3.02311095401064   -0.39434803881877   -0.25770269683287
C         4.03462985509420   -1.40565649611629   -0.84814924730429
C         4.86994147299475   -0.68374262591948   -1.94879127115340
C         4.25873228475328   -0.89086903754796   -3.32498610245268
N         3.84119630176053   -1.07639328621279   -4.50026674720427
C         6.29125484302304   -1.05243643486521   -2.05878914523780
C         6.72463039329786   -2.21733235738566   -2.66396162340820
N         5.91393526095694   -3.15169040837350   -3.19020213859059
N         8.03455682422034   -2.49166762240589   -2.48142333056605
C         8.59766090837893   -1.56353241925340   -1.74371781308600
S         7.59795611064638   -0.26305709336498   -1.24776424370142
H         2.41055592733027    1.17790453400066    2.72435571564274
H         1.93768685542850   -0.54727097404889    2.35904953813523
H         1.21718941788885    0.77341619952185    1.42684815668752
H         4.17769663592157    0.09659095198854    1.50609895883394
H         3.83902047118051    2.62975807635878    1.34779340754638
H         2.50632656455854    2.30149492758364    0.28731912102435
H         5.38946405652382    2.69971817055019   -0.49757150218454
H         3.81181816827663    2.99799804945840   -1.45255483362586
H         4.94784433805910    0.65911603349885   -0.33283047207639
H         2.00046124614787   -0.77679077762125   -0.13942664913309
H         3.52208808783966   -2.24029982168571   -1.33682325640239
H         4.77879766373274   -1.75578533311376   -0.12191808944289
H         5.10688378875968   -2.89235279089701   -3.75117338319009
H         6.52471874314206   -3.82048117514508   -3.65057643227821
H         9.65995602957126   -1.58032244923327   -1.53966259851029
