32
 energy: -49.230883445504 gnorm: 0.279688805989 xtb: 6.4.1 (79825abcba525fcdf90b791dcacef51065a7a4e7)
C         2.50782266327341    1.01358757152767    1.98171914139963
C         3.49243130856320    0.77180139197906    0.80728245546840
C         3.67243426316502    2.16445677002786    0.11949092427927
C         4.29580339408670    2.16954720675853   -1.33677504871864
C         4.38796980384729    0.54571636897348   -1.51197958277565
O         2.93933699734834    0.32245146559711   -1.40836198572845
C         3.01521200180729   -0.34024080454381   -0.11613343046588
C         3.95082371444075   -1.51302238100383   -0.49528578545120
C         4.67537087257774   -1.09654138195060   -1.81129983340670
C         3.91284864969238   -1.37283717202221   -3.09683890906442
N         3.27486954754133   -1.54416712723433   -4.17092868239254
C         6.11762194435856   -1.38786861525816   -1.86792692937187
C         6.95348811223300   -1.69099600006552   -2.92645048501480
N         6.63291962627744   -1.87764119390359   -4.21857278772809
N         8.26602492657581   -1.82821513442111   -2.63851763225175
C         8.53063161583334   -1.56390603962636   -1.38040213964875
S         7.11392864256151   -1.27852501497269   -0.45946454640984
H         2.80913820408653    1.87745342381265    2.58754318377706
H         2.50404972051197    0.10384529090227    2.59578357403153
H         1.49733125737382    1.04033054984605    1.55115095056333
H         4.38861236572711    0.38922756802152    1.29580449815191
H         4.40166037039187    2.71667194450100    0.72017736052173
H         2.72136411588581    2.72572518428751    0.16307560724701
H         5.34076727160164    2.50313008584182   -1.31438825714206
H         3.61765131042427    2.54255952181760   -2.12113856042804
H         4.94765987821247    0.43836468429697   -0.56159127780385
H         2.01188683648370   -0.63481663106460    0.21946721328778
H         3.34307252697173   -2.41687011486413   -0.60404511616545
H         4.74779384073887   -1.74063775559862    0.22361440158412
H         5.70796518294495   -1.59624578637682   -4.53250385371689
H         7.37919020837921   -2.05219416594867   -4.88557616883002
H         9.53020760861086   -1.49722395404161   -0.97199953051250
