32
 energy: -49.228127981170 gnorm: 0.287705270462 xtb: 6.4.1 (79825abcba525fcdf90b791dcacef51065a7a4e7)
C         2.31156449640091    1.33994236913034    1.68628682774827
C         3.45233542590278    1.05684645104212    0.67351110844954
C         3.64596910589358    2.22751609969994   -0.34481390160768
C         4.22313513648347    1.96704932242948   -1.79683387458506
C         4.39045053127441    0.36501102958718   -1.51135754375516
O         2.94993072326230    0.11305545460162   -1.36803307444878
C         3.08686210937794   -0.27214966470377    0.02754548354136
C         4.07260708340676   -1.45439627503328   -0.13101745805235
C         4.78577726953443   -1.28207606576613   -1.50652173090634
C         4.01092980870014   -1.86909285351049   -2.67503058544795
N         3.27773294812350   -2.32599863443999   -3.59356181002293
C         6.23234262605074   -1.45546878195444   -1.71994616083899
C         6.97135232254996   -0.94220540559582   -2.76944888496571
N         6.53378800095802   -0.11829593184841   -3.73738032728779
N         8.26948054436374   -1.31521618896515   -2.75484110720395
C         8.53530972628198   -2.07205434031866   -1.71596601774719
S         7.21482485384821   -2.43026542625367   -0.68416166762564
H         2.46942653710875    2.31900715396595    2.15595666856903
H         2.31294589524636    0.57977580037829    2.47803505728959
H         1.28169160344534    1.29070826190991    1.30663585412876
H         4.31716417739343    0.98718613251004    1.33334114211117
H         4.27803243225360    3.00752677017054    0.09063507806673
H         2.66050775264598    2.69942474962328   -0.51101988952464
H         5.24866730290114    2.35660298790366   -1.81295619991925
H         3.63051536988783    2.31894799285502   -2.65661505934569
H         5.00001916404241    0.47284554214785   -0.59222039894139
H         2.15822878838968   -0.67839051551325    0.45024232894474
H         3.41586791665314   -2.32995630124535   -0.14582057864039
H         4.72216449543925   -1.48483055620737    0.75268867749168
H         5.61342825954589    0.29730359824486   -3.62122616173875
H         7.18060823041163    0.21123148971703   -4.44823706503338
H         9.51381994527853   -2.52465603778105   -1.62618398214422
