32
 energy: -49.229385317017 gnorm: 0.284349386902 xtb: 6.4.1 (79825abcba525fcdf90b791dcacef51065a7a4e7)
C         2.65691812929368    0.93572424427472    2.03480151870320
C         3.56823250506540    0.68012402139117    0.80541512528077
C         3.75543807578317    2.08696974517685    0.14914807652169
C         4.48922959066251    2.16565857468000   -1.25252365749719
C         4.41362973431626    0.55009611034466   -1.49800367893842
O         2.95299745670951    0.43692353105510   -1.38457465008377
C         3.03298929022830   -0.35873895129906   -0.16995733502259
C         3.85856171196985   -1.56863911686459   -0.66907072939489
C         4.67270305609139   -1.07408219666127   -1.90313123167876
C         3.92783393834802   -1.42639802562210   -3.18040715248879
N         3.25116797421429   -1.60629253155548   -4.22912125640783
C         6.11195187516107   -1.38084380327458   -1.85188175071125
C         6.93049798573316   -1.71973510145568   -2.91309122562265
N         6.52645043440898   -2.14529350109751   -4.12256477239721
N         8.24870083153137   -1.71002136829610   -2.61858449099466
C         8.44559994182207   -1.46552392132007   -1.34415036884005
S         7.04801522566417   -1.08221655182729   -0.42957499216570
H         2.97263102766440    1.68904146045842    2.76754743195863
H         2.49389250889051   -0.06056651316738    2.46555406178214
H         1.66395286861851    1.24791951302915    1.68301871586811
H         4.47056076037206    0.39125914340777    1.34441216151006
H         4.26839825685794    2.75937887557515    0.84360781065595
H         2.77346795523687    2.58135390757080    0.03612035926243
H         5.51625801324913    2.55096889010902   -1.27435906566711
H         3.84358329834338    2.70626996753883   -1.96325197236278
H         4.88362732514707    0.35049837231388   -0.51450060265168
H         1.97921320853192   -0.63023010545665   -0.02192821322599
H         3.12789526896331   -2.33600575228928   -0.94367193787254
H         4.46682691858292   -2.04142984084722    0.11212706139943
H         5.70788829921038   -1.75449141247406   -4.58137472367313
H         7.30918398941169   -2.24867801719092   -4.76203475677443
H         9.40686041305594   -1.27059444914198   -0.88767236697937
