32
 energy: -49.230015574537 gnorm: 0.278313504052 xtb: 6.4.1 (79825abcba525fcdf90b791dcacef51065a7a4e7)
C         2.38238858928725    1.16912052096791    1.79926044919411
C         3.50332962312812    0.77833978044138    0.80026200951897
C         3.86672006573428    2.11539668271932    0.07557346807584
C         4.62001343489875    2.09134286089571   -1.31773054912795
C         4.36572168190654    0.48140458804960   -1.45720216178639
O         2.90926445671258    0.31101360196927   -1.36328683571180
C         2.97970111310095   -0.35398445202467   -0.07193523188736
C         3.91680774660662   -1.54617796711018   -0.38023409696647
C         4.67088665336962   -1.16822728988829   -1.69127805818922
C         3.90541307854206   -1.44574043347371   -2.97479935095034
N         3.45901667026332   -1.84224982575139   -4.08545262401672
C         6.10463730904921   -1.46366198141579   -1.85016089527459
C         6.88902446974014   -1.48132423533873   -2.98834164250032
N         6.50929720744389   -1.40746054260938   -4.27579338598728
N         8.21687810912305   -1.56130718120540   -2.75404535089153
C         8.47471864386360   -1.52509396559157   -1.46760162715118
S         7.10256001635979   -1.55309898431010   -0.44143784072875
H         2.73217530900301    1.98945972816344    2.43861236506016
H         2.18341986126529    0.32459237275143    2.47149852590680
H         1.45432765010606    1.50878663863262    1.31912832493705
H         4.32113681110090    0.48488563612705    1.45846643968594
H         4.32422928335455    2.74344491478176    0.84614289524740
H         2.87132201761095    2.53382078081978   -0.16013882173304
H         5.62722066446771    2.52263741568641   -1.37471131581057
H         4.03961757882279    2.64103946271911   -2.07616897727004
H         4.92644148107441    0.34322333771872   -0.51141437055611
H         1.97301252970533   -0.64335692420102    0.25807350246206
H         3.33806931317663   -2.46642371701427   -0.50806370862514
H         4.65073121308843   -1.75913926472092    0.40703424889822
H         5.53344964204190   -1.49274890757818   -4.54731545819418
H         7.17149772099959   -1.80942806167652   -4.93320849693352
H         9.47211662475132   -1.66690312004502   -1.07329363824017
