32
 energy: -49.226510402259 gnorm: 0.282705975870 xtb: 6.4.1 (79825abcba525fcdf90b791dcacef51065a7a4e7)
C         2.73115141792284    1.18160213301490    2.00189932486906
C         3.59889676315887    0.87368983904218    0.75313020960602
C         3.67759587413052    2.15370823782994   -0.14146836171610
C         4.38785779019504    2.07723404291454   -1.55533019325680
C         4.36610783582273    0.44166296922305   -1.57659202899054
O         2.92778994627779    0.25871447587094   -1.33807090554437
C         3.08530355964132   -0.33330388367740   -0.01917878558544
C         3.94143045919933   -1.55414381078742   -0.43286830111620
C         4.65393295167428   -1.21544566919017   -1.77746555001767
C         3.92303628973721   -1.59879948691379   -3.05387463992964
N         3.30169002638510   -1.80740195991641   -4.13111833146114
C         6.09127526728194   -1.52774662872385   -1.84588743067239
C         6.94281018369382   -1.43398437919930   -2.93084251183272
N         6.63018986459172   -1.13428378874520   -4.20348886011488
N         8.22028466462033   -1.68610239312614   -2.57170079234283
C         8.38646627686184   -1.71161934535548   -1.26998532808169
S         6.94488015831161   -1.63597004516607   -0.34655566432508
H         3.07287208120794    2.08411663970082    2.52417567822552
H         2.65985681778142    0.40344071648099    2.77267962328601
H         1.68689746231076    1.38925194752217    1.73058352114100
H         4.58857024450701    0.69495646520545    1.17355592764093
H         4.32953688952062    2.88799780286358    0.34157227455525
H         2.67344068199789    2.57038696707620   -0.34023322129778
H         5.42719236811781    2.42675005503802   -1.59207799164828
H         3.73870244202752    2.58167202725808   -2.28908369601253
H         4.85751002879066    0.42327600318628   -0.58351544747877
H         2.12369515756537   -0.72299742374965    0.34069942129570
H         3.26458011234497   -2.37840414113004   -0.67903764714907
H         4.69030321709471   -1.88675422239972    0.29675319360797
H         5.69653119429201   -1.23179500252577   -4.59342457572066
H         7.41101459007957   -1.26252246937800   -4.84078755385984
H         9.38381671957924   -1.59717405115991   -0.86676612170216
