32
 energy: -49.232085351665 gnorm: 0.281511817971 xtb: 6.4.1 (79825abcba525fcdf90b791dcacef51065a7a4e7)
C         2.35450587520981    1.05509015614567    1.96167933194625
C         3.40000861510125    0.83645532361333    0.83636199798451
C         3.49148301898574    2.16515968438604    0.01714016330202
C         4.29744986515797    2.30325169221349   -1.33957410849293
C         4.46503979715419    0.67793420871599   -1.41878620244810
O         3.02941657630942    0.36748331776026   -1.37722846396237
C         3.05045456041022   -0.31646246780707   -0.09404949407790
C         4.02807283347874   -1.44384270476471   -0.50370634048284
C         4.84104468318227   -0.94293415755099   -1.73597473944191
C         3.91385926689024   -1.22944109824650   -2.90585987685190
N         3.30475168298875   -1.51245174672395   -3.97306795133953
C         6.25809998075894   -1.31882955884985   -1.87317272423485
C         6.98355108461289   -1.69883351097731   -2.98688197276875
N         6.52383054338026   -1.70047502084855   -4.25014559039905
N         8.27026708257362   -2.01734634179732   -2.72726912228631
C         8.55798687107404   -2.03288691114587   -1.44675890931646
S         7.27018153266672   -1.45022657802220   -0.47790389319920
H         2.55893476590155    1.93658732985694    2.58236411321553
H         2.26788558038073    0.14305078290212    2.56616381140608
H         1.38140356433285    1.11041636820267    1.45452261230028
H         4.33607810856062    0.62527138626471    1.35340382698562
H         3.81210970661082    2.95395717709368    0.70455092298759
H         2.42856247256517    2.40511367091866   -0.16746287262214
H         5.25562534717225    2.82505428655279   -1.22403188043766
H         3.72469164068912    2.63325226428371   -2.22122153904820
H         5.03086331870528    0.59007952121596   -0.47002881156393
H         2.06780747822605   -0.78878593012332    0.03778130172529
H         3.41794789516159   -2.31319599977459   -0.76847650472016
H         4.66919159855419   -1.76793071074241    0.32558330407593
H         5.52405684689215   -1.69534073695686   -4.43372938262257
H         7.17239143528434   -1.99519325579436   -4.97457085649479
H         9.56280367450127   -2.20174673440111   -1.08313697721837
