32
 energy: -49.231597916353 gnorm: 0.281472890042 xtb: 6.4.1 (79825abcba525fcdf90b791dcacef51065a7a4e7)
C         2.56942633858987    1.21078849727823    1.93457548713040
C         3.49992522029077    0.97178210930925    0.71627172969773
C         3.53705842152588    2.26832466369082   -0.15696694376164
C         4.28839174959818    2.15365533322788   -1.54681396303552
C         4.35201166778071    0.51910216540919   -1.56117661670802
O         2.92381508589413    0.24893807153924   -1.34580086778268
C         3.08347149103626   -0.30021841012685   -0.00874825446726
C         4.06028296119316   -1.45340770570505   -0.34121811498482
C         4.72964203264935   -1.12538205580767   -1.71040604416151
C         4.01275814682434   -1.63640727715497   -2.94948672691630
N         3.42907357363517   -2.09804123470282   -3.96744867991501
C         6.16181447441111   -1.44337121076932   -1.83662544007478
C         7.00258293423837   -1.30004055439466   -2.92455710469925
N         6.57018596082389   -0.72900203297842   -4.06215479312190
N         8.28511086405523   -1.65603311348764   -2.69460338014628
C         8.43652960848009   -2.04300827322404   -1.44959206232438
S         7.04180500863887   -1.99581204038949   -0.45504115694694
H         2.70285033914647    2.18724400460509    2.41708011292962
H         2.61680449405468    0.37919064158617    2.64936265524357
H         1.51504694445676    1.24515167587110    1.62749194847476
H         4.49807036370757    0.93018674878297    1.15231427426787
H         3.92392801661677    3.09224322583821    0.45050867340871
H         2.53073416989485    2.61494412466122   -0.45466264585504
H         5.30167263722726    2.56157060622680   -1.64974683448566
H         3.65683652842486    2.57272773042292   -2.34667074616628
H         4.93491127791069    0.52326082754962   -0.61871916676931
H         2.16563850846571   -0.75336778353578    0.38912403393334
H         3.60297823876076   -2.44785332312027   -0.33221111924108
H         4.89027286410957   -1.40358583081619    0.37461857299914
H         5.58761514241014   -0.86473335623735   -4.28443482105771
H         7.28333803442382   -0.80917069955012   -4.78136904707684
H         9.32585896986126   -2.43682099273540   -0.97588731552776
