32
 energy: -49.230262923692 gnorm: 0.284904835036 xtb: 6.4.1 (79825abcba525fcdf90b791dcacef51065a7a4e7)
C         2.23185355857771    0.84356977796581    1.92104473349300
C         3.38305842567315    0.73304014020691    0.88676874268548
C         3.61310448859972    2.12931611584633    0.22160750910079
C         4.31178960807365    2.27972091536618   -1.19209085769566
C         4.38876039327753    0.65758420570814   -1.38898131009748
O         2.93506901720259    0.44506718369794   -1.36180179237668
C         2.98090125484654   -0.32618030368318   -0.12979147554006
C         4.00171433508527   -1.41305480259845   -0.54353885699808
C         4.78633167900803   -0.93598040711848   -1.80333790810525
C         4.04099784836828   -1.25917353321036   -3.08802228004073
N         3.37358863908932   -1.34794182268323   -4.15419547653171
C         6.22177152857974   -1.23505637680684   -1.93836518339838
C         6.94266183047599   -1.87494011052979   -2.92927213122605
N         6.45773932938568   -2.36018055243817   -4.08537442766290
N         8.23621894974419   -2.16875242760635   -2.67457306144895
C         8.62291759146505   -1.63618490325353   -1.53898220865569
S         7.32265215545406   -0.99108538154961   -0.62806393653066
H         2.47660811719501    1.66344201121721    2.60805475081903
H         2.08918607209611   -0.06352077988270    2.52233758046970
H         1.31919811677129    1.05448740122707    1.34678796484150
H         4.24096570814777    0.33210734280130    1.42658814908167
H         4.19325784087417    2.66182065516517    0.98147428234334
H         2.65024388430818    2.67017187146593    0.26439526000309
H         5.32634518324444    2.66581084106164   -1.03290617679337
H         3.72365436865043    2.79682724045483   -1.96730214322321
H         5.01811840507873    0.54625466180352   -0.48370261470072
H         2.02819494773038   -0.81786673449818    0.10824055044274
H         3.51517179224727   -2.37569110095978   -0.72992163678582
H         4.82648710485675   -1.61864116665111    0.15019866761967
H         5.49158786746128   -2.19353273779040   -4.35380816600013
H         7.09262806019199   -2.52173619538326   -4.86196834205848
H         9.63247039746831   -1.78979778360962   -1.18177418372809
