32
 energy: -49.227014065272 gnorm: 0.291302027486 xtb: 6.4.1 (79825abcba525fcdf90b791dcacef51065a7a4e7)
C         2.10109012005624    1.12807382097108    1.76941621873197
C         3.35194433761239    0.89906315963116    0.88052133519220
C         3.58744134972978    2.21467897331929    0.06895282707674
C         4.28751497836289    2.22760130658088   -1.35198189950101
C         4.43979213509080    0.60085291294326   -1.43272342596681
O         3.00471141673190    0.31173885661825   -1.30592742398799
C         3.09370962367728   -0.31710973639455    0.00227801374731
C         4.14460423212214   -1.40815951762705   -0.31359112067557
C         4.84230362634090   -1.02938228529798   -1.65525477396028
C         3.98437034910875   -1.49190722574302   -2.82162153608742
N         3.28898368701836   -1.88746365923229   -3.79630745690352
C         6.26583308222631   -1.32001174002148   -1.89455535491839
C         6.99107553101180   -1.41509166819633   -3.06759149653488
N         6.58524896001124   -1.31128919145649   -4.34497572781124
N         8.28348628742611   -1.74996961837822   -2.86260732508295
C         8.55039620918451   -1.86945524498586   -1.58307113084462
S         7.21111000286649   -1.76925555393848   -0.51869893209094
H         2.21848846935932    2.01499466838226    2.40476421341337
H         2.03284586983036    0.38235048049293    2.57188727821047
H         1.22860405702050    1.16242126338450    1.10249391572370
H         4.20888494694144    0.67135916931662    1.51452503275288
H         4.35393676222505    2.74920473451106    0.63842934356769
H         2.69498477860053    2.86624912060171    0.04812270092243
H         5.28136654107411    2.68237554022781   -1.44772988400748
H         3.64207557322800    2.53802740880591   -2.18941736716989
H         5.01962752187442    0.55988520509683   -0.48925754680785
H         2.06790153828513   -0.66702937477710    0.17930376302529
H         3.61794344038411   -2.35884874721378   -0.44378032202631
H         4.91178017184107   -1.44974256618459    0.46967099954019
H         5.58716972028000   -1.39403106771622   -4.51895396648758
H         7.22354221299832   -1.75463044936783   -4.99943144713449
H         9.49185206773617   -2.24144419735170   -1.20139529326148
