32
 energy: -49.229475063545 gnorm: 0.271159798679 xtb: 6.4.1 (79825abcba525fcdf90b791dcacef51065a7a4e7)
C         2.35353234499247    1.02768507423215    1.90120439792008
C         3.44546183478560    0.78323823314427    0.82642441906941
C         3.74545628417198    2.17285175335359    0.17532930202547
C         4.48084608061746    2.23489831927456   -1.22634028785372
C         4.37574783220335    0.62310767131084   -1.48538298549670
O         2.92592399981308    0.38623834513440   -1.45337357155439
C         3.01680459289240   -0.28695917373581   -0.16755923048939
C         4.00466463788439   -1.43650954500416   -0.47934264265216
C         4.73812188319756   -1.00414796397592   -1.78526068675881
C         3.98673758904866   -1.42881302643648   -3.03644870945297
N         3.50255445217353   -1.81071920906186   -4.13633711225914
C         6.17222019818382   -1.33490016104991   -1.83142742747630
C         6.89060037844870   -1.62165068977729   -2.97717375785219
N         6.43078620782948   -1.67236499437496   -4.23938595362118
N         8.20787251715072   -1.82041515290300   -2.75407261643426
C         8.48845128740401   -1.76657714194147   -1.47301539045988
S         7.18176007407588   -1.39253232911521   -0.42933715981105
H         2.78642851113249    1.64984304071640    2.69467677348809
H         2.02772909345550    0.04669339493561    2.27029509992144
H         1.42553938844450    1.49535808477777    1.54440184333773
H         4.25575877311268    0.35282891335044    1.41491714939816
H         4.18087207958675    2.84458026456451    0.92147298804609
H         2.70443085357117    2.47498154633954   -0.04016994302438
H         5.50781026660286    2.61443900998585   -1.15547683266913
H         3.97784532122183    2.75444002001645   -2.05779756790172
H         4.88733535977903    0.45394048095853   -0.51704628704209
H         1.98628644626472   -0.61939814774284    0.01569135574246
H         3.49493739585689   -2.39924030809193   -0.58638677114507
H         4.77197349510477   -1.53734645029513    0.29838266933217
H         5.42865774412592   -1.75259072448142   -4.38964968467644
H         7.10848033453904   -1.98271855887823   -4.92981579900240
H         9.46926386644366   -1.93875232690745   -1.05022259285825
