32
 energy: -49.232811848543 gnorm: 0.282257454366 xtb: 6.4.1 (79825abcba525fcdf90b791dcacef51065a7a4e7)
C         2.42384929518649    0.70187546103769    2.01200644328740
C         3.46695701581368    0.55983151603844    0.87228451670493
C         3.93238607530388    1.98039548912496    0.41367679435782
C         4.55755226588155    2.26435752005352   -1.01385897354392
C         4.40778761134911    0.68990878898892   -1.43182977359927
O         2.94365307891555    0.58350302166990   -1.36773059422754
C         2.97452268708152   -0.34465294830348   -0.24864781674856
C         3.82937766909234   -1.47261729660611   -0.87431689829126
C         4.68258382142247   -0.87018660749518   -2.03165631454522
C         4.08296199188858   -1.17563118517348   -3.39457505581894
N         3.42896269603272   -1.33419456584359   -4.46096274701033
C         6.12499423292851   -1.16524817375398   -2.00805044468929
C         6.85422315040617   -2.09101414420268   -2.73069361438857
N         6.38638566967070   -2.91632327396645   -3.68315021029885
N         8.15289055943285   -2.21291721950603   -2.37985189068992
C         8.44264982033302   -1.44310516994372   -1.35703246799238
S         7.15892855083934   -0.43837129758104   -0.82865263820507
H         2.93450297356035    1.23148189765015    2.82614886285326
H         2.04686180343906   -0.29593286094567    2.27081015837903
H         1.61137969928906    1.36450619868070    1.68335663526438
H         4.30487732489383    0.02030206658380    1.31382107566786
H         4.54965592099079    2.45476414063303    1.18275990292451
H         3.01463897263859    2.59603496148656    0.42726278520042
H         5.57604357386228    2.67227628753440   -1.01629538809076
H         3.88127160316967    2.94084841332242   -1.56090475241400
H         4.97730823648307    0.38179954167531   -0.53253547043280
H         1.93792674260367   -0.65522447709782   -0.06135587901969
H         3.23092256796887   -2.33069539358357   -1.19631736172834
H         4.56693730350792   -1.82035731674988   -0.14023904896615
H         5.41769246925305   -2.86031428988703   -3.98609127689972
H         7.00304465563885   -3.27914194009352   -4.40452136541059
H         9.43427312133854   -1.35353074824511   -0.93388827250235
