32
 energy: -49.229257841232 gnorm: 0.280396524900 xtb: 6.4.1 (79825abcba525fcdf90b791dcacef51065a7a4e7)
C         2.75367790239433    1.01812232832987    2.08336433498553
C         3.58064237751002    0.79904626103009    0.78901055622643
C         3.68663274179642    2.13743827875278   -0.01250058439974
C         4.34433903839917    2.17717060480335   -1.45304539192500
C         4.31420823410938    0.54931765418715   -1.61180549710948
O         2.86631320218165    0.41255029935329   -1.40200680186610
C         2.99234051322803   -0.26817368647454   -0.12313828923502
C         3.93284062056206   -1.43620286594617   -0.50485782064058
C         4.67456555159815   -1.09107916571300   -1.83190407718604
C         3.87582772482983   -1.49936238376204   -3.05897903541829
N         3.32276240770247   -1.63677245533178   -4.18382452534264
C         6.10225133080740   -1.44968246597648   -1.86772806718337
C         6.94933621257875   -1.62337340833051   -2.94629621880434
N         6.71301119980298   -1.61162193154476   -4.26962271890440
N         8.24149423016042   -1.74695061722805   -2.57274080078666
C         8.40880569776181   -1.75008261610486   -1.27092374136242
S         6.97639261643452   -1.45923839562372   -0.37637463611494
H         3.08895694046368    1.89928657404004    2.64480495969097
H         2.81017430020607    0.19003242697421    2.80155348262179
H         1.71503339141497    1.14373893415849    1.74775282808608
H         4.60722121773985    0.65139903854818    1.12441059677878
H         4.31881853624807    2.82318512586441    0.55988817572027
H         2.65928284421130    2.53760566699599   -0.08914608840935
H         5.35078983608431    2.61217572515056   -1.49248577618657
H         3.61679126412044    2.65282769033127   -2.13030392849795
H         4.89545450911042    0.52338576880921   -0.66867475293506
H         2.02167667191529   -0.60846789680969    0.26166770885658
H         3.33551175897306   -2.34159629219728   -0.65179932831950
H         4.61755394384116   -1.73039851083055    0.30037767862926
H         5.77611009955227   -1.85940093102458   -4.57637784995730
H         7.49337407120760   -1.91649285974462   -4.84440053871441
H         9.36463476114746   -1.57146822427245   -0.79670959175471
