32
 energy: -49.229222414177 gnorm: 0.279176716313 xtb: 6.4.1 (79825abcba525fcdf90b791dcacef51065a7a4e7)
C         2.63666175246605    1.12371397928369    1.93148513998840
C         3.65950547563068    0.86818864279125    0.79319089367376
C         3.76142920448824    2.18233343907684   -0.04798819697540
C         4.36110660687126    2.13818609063731   -1.51351321978578
C         4.25545715490589    0.50930116231189   -1.62116978470276
O         2.84871342252979    0.27020474322678   -1.27041944866142
C         3.15681264883007   -0.33878227302363    0.01370764074876
C         3.92366541386994   -1.57996684358430   -0.50198617603820
C         4.63401288051646   -1.13033133774973   -1.81482751483927
C         3.83974603776371   -1.55664591699714   -3.03866831018215
N         3.28087508191275   -1.75371313958440   -4.15171273904867
C         6.07871713667482   -1.41295826082691   -1.84826369956553
C         6.96513087290532   -1.53180931133464   -2.90238688861814
N         6.68759659705585   -1.46281469740627   -4.21592984407489
N         8.27395429679475   -1.61630338654662   -2.57938641631232
C         8.42492140228849   -1.64561163185933   -1.27589857551694
S         6.97148023036007   -1.54413354744942   -0.37377516156755
H         2.98826747671461    2.04917543468757    2.40474251804619
H         2.68769284203598    0.27546966258413    2.62617772438980
H         1.60502699337843    1.15396401455739    1.55464074987634
H         4.62904651153243    0.60145652025815    1.21390594935563
H         4.36011975301313    2.87761805600834    0.54840549576764
H         2.73862025658980    2.58343244766229   -0.16814527838357
H         5.39866111248803    2.48881771488277   -1.57883027226501
H         3.76447843346161    2.72209449111796   -2.23277697444225
H         4.85878885850424    0.40685183108237   -0.69731357829912
H         2.24633800845265   -0.70200409070065    0.50885402223966
H         3.20062607384445   -2.35795298808994   -0.76671717468543
H         4.69394484430270   -1.83113549560208    0.23785943517164
H         5.71843903908746   -1.56662289999597   -4.50443339171974
H         7.38529872788635   -1.51031405773111   -4.95297636643798
H         9.38250007173965   -1.69181698550891   -0.77460074504792
