32
 energy: -49.227337410038 gnorm: 0.281783544836 xtb: 6.4.1 (79825abcba525fcdf90b791dcacef51065a7a4e7)
C         2.18363520322401    0.88247250582589    1.92120981680921
C         3.28239497595803    0.87067225049182    0.82585417407142
C         3.52454841899383    2.26959261788065    0.17062080491986
C         4.37124751865204    2.35453158584430   -1.16549729192883
C         4.50665213823837    0.74513602164234   -1.42536138079588
O         3.06187067278969    0.47983117897894   -1.46197676749703
C         3.03598275111414   -0.23202113716721   -0.19415627680363
C         4.12201580025605   -1.28521383242947   -0.51951727253314
C         4.89443674614221   -0.85945593904699   -1.80497987624268
C         4.04574525695774   -1.48858316745584   -2.89782566599712
N         3.21638281867360   -1.97154093555500   -3.71571922715455
C         6.32686035365258   -1.17556463236573   -1.93305895586721
C         7.00031164429017   -1.58652894922294   -3.06822514708736
N         6.52560224131479   -1.56826717944427   -4.32580143721286
N         8.23419472503887   -2.06737652084373   -2.80213217228795
C         8.53807295184161   -2.00530223018098   -1.52677520341070
S         7.24966951077934   -1.51163590133952   -0.51044561793870
H         2.40628632750377    1.66166935694524    2.66104546073885
H         2.20595746705374   -0.11407276405264    2.38068736911910
H         1.17432804204067    1.01694030062007    1.50839690378869
H         4.20986661777097    0.63691899540798    1.34864741528693
H         3.97700587951884    2.98872089129636    0.86031151792490
H         2.53272023882099    2.69653742807911   -0.06486013242905
H         5.39077241447508    2.75205663388432   -1.08630747304422
H         3.75823338916204    2.84409102893383   -1.93931883138878
H         4.97364730350298    0.54756052034884   -0.44002147310442
H         2.08054907668463   -0.77322289238884   -0.17651393828042
H         3.67257598195878   -2.27241956382039   -0.66634888894187
H         4.86077242127000   -1.39382351151262    0.28436718249981
H         5.52364526841394   -1.39692270843872   -4.32546207071957
H         6.87674694809413   -2.29235879037853   -4.94601976104077
H         9.45985899910711   -2.38476008324985   -1.10640206030562
