32
 energy: -49.233082511781 gnorm: 0.279763004306 xtb: 6.4.1 (79825abcba525fcdf90b791dcacef51065a7a4e7)
C         2.43307523637435    1.19151833040958    1.80077772513658
C         3.51807062663337    0.78735545328584    0.76798847081382
C         3.79581516263214    2.14225935065085    0.03857729792613
C         4.47101667968164    2.16100381852433   -1.39427898512720
C         4.34777814147616    0.53702809499127   -1.54768358176429
O         2.89389433857545    0.39074928424711   -1.39294114771848
C         2.98709206556423   -0.32207791084403   -0.12883503095598
C         3.90910329365016   -1.50935858115293   -0.49598938877262
C         4.72804670569679   -1.10017696247271   -1.75782142791494
C         3.98994061761862   -1.66055761394383   -2.96262978529308
N         3.24629436251928   -2.14655997344248   -3.85752201304084
C         6.17121850420999   -1.38686242611050   -1.81468068197414
C         6.99210501560020   -1.32167890188791   -2.92505316693155
N         6.53370978413582   -1.04616462768613   -4.15840078396737
N         8.30777541749545   -1.53012664509369   -2.70133850342416
C         8.50039873735260   -1.76999166775482   -1.42537156672453
S         7.11302934622246   -1.78043904966883   -0.41953225405143
H         2.85129082400167    2.06586003398786    2.31526809868704
H         2.28539103735034    0.45192173488441    2.59821526682344
H         1.43997506566898    1.45464943438938    1.41127662346679
H         4.34885276181573    0.47628317332044    1.40138572749299
H         4.44894989100165    2.72855443658991    0.69219003326070
H         2.78450159223163    2.57521870082491   -0.06747621410037
H         5.51079440215480    2.50781658585574   -1.34620197264107
H         3.88508671592372    2.63552201754021   -2.19787907699565
H         4.90840753108970    0.47486043006018   -0.59382553959476
H         1.99053189596059   -0.67809377009075    0.16473716666945
H         3.29464780931982   -2.35093702763481   -0.83113265542655
H         4.55786144156808   -1.77824374691322    0.34698229187724
H         5.55039590337659   -1.26167871239390   -4.29955428201056
H         7.07015570935217   -1.26308795724633   -4.99353674545690
H         9.51724971543011   -1.88147415394148   -1.07326774106336
