32
 energy: -49.228179908255 gnorm: 0.275588353021 xtb: 6.4.1 (79825abcba525fcdf90b791dcacef51065a7a4e7)
C         2.19577808559365    1.24760149242275    1.80451210814306
C         3.31608233126396    1.05400003402620    0.74874075910667
C         3.48203018819405    2.31220424248380   -0.16467630376664
C         4.37143908135592    2.23493289614168   -1.47322761007417
C         4.46834296146898    0.60195586237687   -1.46955759889313
O         3.03030678892542    0.30284853689670   -1.42823443093613
C         3.03671190991503   -0.20205813901625   -0.06448924832401
C         4.11972293544888   -1.29536235976653   -0.22670950556334
C         4.82118194200984   -1.04984251648202   -1.59710844403592
C         4.05846746380087   -1.82872456600342   -2.65635326406560
N         3.48924216828503   -2.50775075906875   -3.55354115801780
C         6.25979682143504   -1.32384823380134   -1.75032213299803
C         7.02461321780271   -1.13929050332601   -2.88699487276638
N         6.61068339697530   -0.39214125576319   -3.92507518909758
N         8.24762972601548   -1.71262388104093   -2.88959613665412
C         8.48243334559210   -2.36201072118370   -1.77339965625191
S         7.16073937321279   -2.34223185705355   -0.68282662575666
H         2.34261167254348    2.18782181445061    2.35086701100592
H         2.32162887643431    0.45672234348209    2.55510662562327
H         1.17116588021475    1.32199418103610    1.41485509106300
H         4.16003402409868    0.92572733357913    1.42656718009616
H         3.80479519308566    3.13984130080742    0.47436685424431
H         2.46915039627500    2.51163175765370   -0.55934005332378
H         5.36951152011103    2.68955079323084   -1.44319139868210
H         3.83727900994768    2.71578417325395   -2.30851774369414
H         5.02350407724530    0.68008094843428   -0.51367690530206
H         2.05635071256624   -0.63195736940900    0.18075078018070
H         3.61788809735294   -2.26621031012242   -0.28792126911058
H         4.82620531295482   -1.20348722083567    0.60769400928385
H         5.61500652090453   -0.23064714525836   -4.05086877055892
H         7.10517904144822   -0.59358385743780   -4.78946918119725
H         9.50778636083974   -2.58205898641010   -1.50765294782009
