32
 energy: -49.228920820078 gnorm: 0.278720814427 xtb: 6.4.1 (79825abcba525fcdf90b791dcacef51065a7a4e7)
C         2.33997499242449    1.27269614826456    1.80579141091739
C         3.41005637198202    0.94211114914841    0.73208024420706
C         3.65290474299650    2.20607507973004   -0.15582014822655
C         4.45382978388964    2.11133119597098   -1.51922333356351
C         4.47792179673170    0.47584262381552   -1.49443302387131
O         3.01993710786963    0.30086712788575   -1.44165942744603
C         2.96857465645729   -0.25456265975526   -0.09866562621870
C         3.91646384474396   -1.45094746474221   -0.35305095536709
C         4.74250238517944   -1.19006752500498   -1.64916822428502
C         3.93993496225798   -1.68867716436547   -2.83982526596917
N         3.16991847780974   -2.24941699174275   -3.66607316866169
C         6.17971828968201   -1.49964412367251   -1.73126032958852
C         6.94445725768155   -1.21085897021719   -2.84607334123173
N         6.48734496538127   -0.65015574238455   -3.97914036774124
N         8.27599102271290   -1.40578576002608   -2.72984642759226
C         8.63489142916445   -1.87426780419320   -1.55747888117415
S         7.27062883863622   -2.14735644828556   -0.55706603096850
H         2.69496709931893    2.09526137269436    2.43938835843923
H         2.19895663118830    0.32818986559096    2.34684786224094
H         1.38779042622818    1.61842880941543    1.38033810696999
H         4.27994225832464    0.84475433857677    1.38167796517040
H         4.18373512822124    2.91617381526779    0.48567451025053
H         2.64781225502989    2.60252646253376   -0.38835331778941
H         5.40045124645603    2.65320497458410   -1.40086448714367
H         3.94254408269235    2.52593842127812   -2.40293274785442
H         4.95829642622670    0.48685697359048   -0.49586695669261
H         1.96398944282251   -0.59068938501382    0.19097461705078
H         3.23858136155751   -2.28284037494834   -0.56882944050581
H         4.62336918410341   -1.79009617490762    0.41444537193994
H         5.49287179073138   -0.67203951626893   -4.18847507838001
H         7.13524210764936   -0.81530204972876   -4.74414888392047
H         9.61691923045860   -2.19627486160252   -1.23759732581567
