32
 energy: -49.232048950472 gnorm: 0.280590625411 xtb: 6.4.1 (79825abcba525fcdf90b791dcacef51065a7a4e7)
C         2.74741541781959    1.08850592433246    2.01133478309535
C         3.60160909376538    0.86558457137114    0.73545253744045
C         3.71638512744123    2.22058353738819   -0.03639687818354
C         4.41328434777708    2.16045088640394   -1.45767838102320
C         4.35417535928498    0.53151578798100   -1.59586100902857
O         2.91399127245149    0.29022600280549   -1.43224601546695
C         3.05932324989359   -0.28286552254113   -0.10363116467522
C         3.89692005677617   -1.52740798130405   -0.48322051549564
C         4.62864034234307   -1.12741271109871   -1.80037927732090
C         3.86526984214053   -1.61349892701002   -3.02159830439501
N         3.38353141886858   -2.23861072399277   -4.00506333947754
C         6.08033559985868   -1.36343004964994   -1.87139381435425
C         6.97876362640281   -1.38765059890315   -2.92176091439442
N         6.63841619489130   -1.10666680491824   -4.19156104523714
N         8.27090495376888   -1.59501568106842   -2.58730938475863
C         8.37598928708455   -1.70557992752056   -1.28367468748103
S         6.91552751236290   -1.66466736647363   -0.38813392102677
H         3.31442649590802    1.70137398209321    2.72335249173231
H         2.49796661627425    0.10493933621436    2.42977527085158
H         1.78190120722227    1.57023278721106    1.80416679877030
H         4.60571496815440    0.58811797813755    1.05629624902846
H         4.28050507665885    2.95752723151078    0.54344722418447
H         2.68172896048656    2.58897978595702   -0.15979502643306
H         5.42949574874639    2.56189802059373   -1.55709062204228
H         3.82166728366471    2.65922413147632   -2.24219673742058
H         4.94291813786004    0.42679350875257   -0.66289236981993
H         2.09182725268067   -0.63805581767811    0.27565164403882
H         3.23090451859656   -2.37543275156702   -0.67139097207971
H         4.64121003378212   -1.76227638410101    0.28791947487931
H         5.68213117435886   -1.00735925304743   -4.52161222553430
H         7.30245486760245   -1.37241987560519   -4.91316341588507
H         9.30095489309423   -1.94222882027523   -0.77492397405746
