32
 energy: -49.226450215008 gnorm: 0.287726482360 xtb: 6.4.1 (79825abcba525fcdf90b791dcacef51065a7a4e7)
C         2.22615077929717    1.17344440418214    1.77979534655913
C         3.39009264397117    1.00792539130788    0.76734334109325
C         3.56166383834374    2.30846309239786   -0.08360452324421
C         4.20403174475204    2.17994528269704   -1.52588473612992
C         4.38641064249003    0.55550716161907   -1.46298339327870
O         2.96705797949591    0.19997543933054   -1.32823903539052
C         3.06089114874450   -0.28735591980562    0.03868312215150
C         4.16575637985625   -1.33579784177441   -0.23441900647915
C         4.82964008014001   -1.07178854301702   -1.62001473740590
C         4.06900789237072   -1.73275421726094   -2.75797489391104
N         3.41749797709633   -2.21666025313388   -3.72307070845647
C         6.23496245312022   -1.43805083432848   -1.86309360897042
C         7.01599103241098   -1.20596081783405   -2.97985642590307
N         6.63090843095906   -0.66821310666694   -4.15020655777675
N         8.31489273062776   -1.52269314986801   -2.78744455183241
C         8.46451387925934   -2.12948910837881   -1.63325965662340
S         7.15362869532257   -2.04942965602199   -0.53244803858425
H         2.39236407301158    2.11348727320980    2.32087813318579
H         2.19214505415870    0.30817508762117    2.45423807961375
H         1.28614460673878    1.30871837662071    1.22726807729084
H         4.28637778174681    0.78815458039673    1.34745604285140
H         4.07604489534308    3.06444056719561    0.51759984590727
H         2.53113917064823    2.68887615761265   -0.20509975586994
H         5.16684049956939    2.69329675535003   -1.64076629187674
H         3.52816593644712    2.54560405534432   -2.31566547618396
H         4.98641500602335    0.54486982927086   -0.53137354865620
H         2.16958796449534   -0.77741589870674    0.45278932742710
H         3.73197407103430   -2.34074977393872   -0.22847314507537
H         4.98655846330852   -1.38974069983523    0.49164003543060
H         5.63828089384439   -0.73489115219777   -4.35882445813646
H         7.18505216654176   -1.04229916430778   -4.91523360424189
H         9.40839976938432   -2.62565207153169   -1.45079568442117
