32
 energy: -49.229448859272 gnorm: 0.279828272852 xtb: 6.4.1 (79825abcba525fcdf90b791dcacef51065a7a4e7)
C         2.27317943596608    1.21642018996055    1.78039639514922
C         3.42075894253516    1.04576319853249    0.75027322786352
C         3.37471249721678    2.31836487022968   -0.15709217102406
C         4.23106354425517    2.25807711933966   -1.48838997342993
C         4.40111720713550    0.63150588648388   -1.45143575965955
O         2.97824705934999    0.28123635135348   -1.34247418319637
C         3.09955018604868   -0.24389279329601    0.00819144367876
C         4.19229481097315   -1.31559108951239   -0.21965580374726
C         4.81845888626269   -1.00222721423509   -1.61250886134455
C         4.04464665762012   -1.65793912114971   -2.74460725819283
N         3.67814562733765   -2.41522921195533   -3.68387764563174
C         6.21822831124577   -1.42461846686979   -1.78685777864921
C         6.99627573837050   -1.21887852994018   -2.91084349272006
N         6.61081629177364   -0.45162390432755   -3.94521383088100
N         8.21864197852556   -1.79220479305260   -2.87077998263383
C         8.45436875989377   -2.35258007026528   -1.70753322218507
S         7.14757959565606   -2.27332556388382   -0.60180427714543
H         2.31042116414378    2.22221593237598    2.21750738205255
H         2.31202517310576    0.46372714019233    2.57830902280325
H         1.31665017290172    1.16957957553970    1.24182907225485
H         4.34797429233978    1.03398402025487    1.32323915221903
H         3.80916391277309    3.14252896843777    0.41696533094820
H         2.33910664420009    2.59786169715152   -0.42328443881388
H         5.23124932403438    2.70202238909770   -1.40921163624847
H         3.78285266670834    2.65170240413727   -2.41489992381265
H         4.96715318396511    0.70725952526110   -0.50176215846527
H         2.13984331695004   -0.68477289628643    0.30927541865240
H         3.78773752860517   -2.33040308228385   -0.28763269078695
H         4.95233847855858   -1.14282254414705    0.55253088236716
H         5.69405354221441   -0.02182220557177   -4.03517700610967
H         7.08041932170349   -0.62225147541058   -4.82988397444290
H         9.24652855998254   -3.08509801552783   -1.62821317575386
