32
 energy: -49.230245886288 gnorm: 0.277562467160 xtb: 6.4.1 (79825abcba525fcdf90b791dcacef51065a7a4e7)
C         2.43104560342100    1.28617715597997    1.72970343817343
C         3.57738812513882    0.90195603632149    0.75734073598384
C         3.87638192404850    2.19445535693443   -0.07030379418636
C         4.44677886665450    2.07109051049931   -1.54297280269150
C         4.33777892021638    0.43897431654704   -1.56123727524069
O         2.89249092409237    0.27855293486829   -1.35021971200185
C         3.09986560746804   -0.30671835039575   -0.03521934577966
C         3.94197527834170   -1.55749688862305   -0.38299335894033
C         4.66496022185657   -1.21529331901057   -1.72109181463071
C         3.88779920823533   -1.71443018663981   -2.92826759740063
N         3.29115698814538   -2.27519031092799   -3.88722863737754
C         6.10661524360346   -1.50728789187762   -1.78844398979714
C         6.91049793318518   -1.21863020904814   -2.87540303409812
N         6.48132270326483   -0.83879092625473   -4.09142580557959
N         8.23340987984561   -1.40245813824182   -2.67391211900697
C         8.49674545993705   -1.77413668162135   -1.44296125688209
S         7.11905512497584   -1.83250153931581   -0.42552399568244
H         2.78783741215344    2.03375230220010    2.44936241458691
H         2.13820703753943    0.36635911856938    2.25210245431800
H         1.61097279199811    1.70256867132916    1.12862463700106
H         4.43650310527565    0.56064719487691    1.33491041056525
H         4.59479620177776    2.66184928548599    0.61010810259916
H         2.94431327791015    2.78654978314613   -0.11643958802082
H         5.49171746577857    2.40239632907100   -1.58844789413974
H         3.92978535657710    2.63684746634048   -2.33473749097798
H         4.90070463411883    0.33720057482734   -0.61214716188627
H         2.14855679284913   -0.66116613194244    0.38363911209100
H         3.23283446280923   -2.36943084663750   -0.57276527622481
H         4.65568849073583   -1.74805849223287    0.42823246846144
H         5.47832159644562   -0.99005952863312   -4.15763312052034
H         7.03717529428113   -1.04943431294633   -4.91540353307736
H         9.49840206796577   -1.91972034945155   -1.06101781419168
