32
 energy: -49.232842903526 gnorm: 0.288771808998 xtb: 6.4.1 (79825abcba525fcdf90b791dcacef51065a7a4e7)
C         2.62966984368414    0.95116916548239    2.07884881737827
C         3.52351575718459    0.79071944534914    0.82086962863314
C         3.60912766959843    2.16642816477133    0.08259909857173
C         4.35257455477041    2.19634588994057   -1.31587050418598
C         4.35678249289180    0.56755277480928   -1.46763724364462
O         2.90537289121250    0.36198110964049   -1.36628988817465
C         2.98358006618596   -0.31133009102525   -0.07970201104556
C         3.83830447143105   -1.50495209893121   -0.56883910922881
C         4.69175991902166   -1.06022053845151   -1.79527525526197
C         3.98935814142032   -1.43323791687702   -3.09060533139769
N         3.34665672645601   -1.74653338069319   -4.12926840352013
C         6.14706853364654   -1.27067944092351   -1.87241297803017
C         6.94837099907291   -1.63782558430830   -2.93737713155264
N         6.66773155176451   -1.73171379706053   -4.24871504748283
N         8.26223944742211   -1.80198629998123   -2.67037849860863
C         8.47290552114562   -1.67612441061933   -1.38099524188452
S         7.10655736516127   -1.25916835971910   -0.43449850935882
H         3.00440545882192    1.74933535596100    2.73198125957361
H         2.52533205806977   -0.01652600228276    2.58619492028636
H         1.61566787026212    1.27150108364590    1.80247136721906
H         4.52402453253738    0.58435542112030    1.20107100042106
H         4.09510171356313    2.94518443564744    0.67833763814743
H         2.58674528873810    2.50209835809908   -0.16942485285440
H         5.40874531520683    2.49297693036014   -1.33141273684819
H         3.74335586755046    2.70359875414480   -2.08124732234035
H         4.95372877673378    0.38415611222774   -0.55219413069489
H         1.98123189713081   -0.64873125629887    0.21614034257612
H         3.19673593121770   -2.27469412232418   -1.00931369169458
H         4.53659178353207   -1.96035667462519    0.14445544500053
H         5.71702838390514   -1.79090937596448   -4.60358992612429
H         7.31800199224959   -2.21653467140782   -4.86058031493209
H         9.48481392772931   -1.76828333522407   -1.00959321181299
