32
 energy: -49.227969852962 gnorm: 0.276595336611 xtb: 6.4.1 (79825abcba525fcdf90b791dcacef51065a7a4e7)
C         2.81453639968029    0.98603251016717    2.06540901117054
C         3.70192275252024    0.71116906037952    0.82274581637015
C         3.77323229071843    2.07779394176923    0.06630768931544
C         4.38687283667000    2.18144270322581   -1.39041046593118
C         4.26775587406242    0.56762500817665   -1.63003817207852
O         2.83968653219001    0.41199147927230   -1.32097995935626
C         3.07596214364786   -0.33092960358653   -0.09337464775075
C         3.88581080453664   -1.52502695140099   -0.65267696850045
C         4.62084705967543   -1.05863965404129   -1.94593741989834
C         3.96895562422214   -1.60555356897566   -3.20542657859252
N         3.30256627022141   -1.95822381505625   -4.21616346545023
C         6.07310255638918   -1.29441911353650   -1.88653723178252
C         6.93443834585489   -1.60779484859954   -2.92139321524120
N         6.60569521615825   -1.84052523392396   -4.20394737066222
N         8.20623448547684   -1.82161647769655   -2.51976875393095
C         8.34165362645616   -1.48215149244053   -1.25915153408780
S         6.90971602952281   -1.14167971959691   -0.38151300399023
H         3.31698716334449    1.79631401625191    2.60860800568863
H         2.82219450906374    0.09767074379536    2.70998259506859
H         1.77253362739266    1.26698451165701    1.85927014920807
H         4.57830381954247    0.25461505528887    1.28282371171232
H         4.32852597504586    2.72554799175348    0.75158144732687
H         2.73300316345550    2.43991412805261   -0.02451420693016
H         5.41076437400843    2.57468479135568   -1.41752102152089
H         3.78364905733482    2.78616878788547   -2.08660151694831
H         4.96955681319990    0.45692103461110   -0.77960571238979
H         2.10954419994609   -0.69887788744160    0.27637461495794
H         3.26951667985356   -2.37406658139626   -0.96483732983376
H         4.62270907925383   -1.89037493289753    0.07346999132556
H         5.78718015968933   -1.36834540958793   -4.57858870667888
H         7.44212556989906   -1.98648386923558   -4.76194591762889
H         9.24627621662584   -1.59899833679959   -0.67743326529328
