32
 energy: -49.227451227284 gnorm: 0.282594694965 xtb: 6.4.1 (79825abcba525fcdf90b791dcacef51065a7a4e7)
C         2.20310609368554    1.14659915769867    1.79685941243820
C         3.40532021189638    0.98640374184415    0.82926708381691
C         3.48539683148571    2.28047806012332   -0.04475045050705
C         4.14745911374512    2.25201745538401   -1.48356562179930
C         4.39999093092011    0.63577334217439   -1.48426581979896
O         2.97978640086529    0.29029533558558   -1.33331924196142
C         3.10546175551042   -0.25915588224900    0.00723354177423
C         4.19636738105706   -1.33356777093722   -0.21661110843416
C         4.86620471422247   -0.98975928869389   -1.58168681157752
C         4.08420767577019   -1.52006420254454   -2.77233688457372
N         3.51231671426158   -1.79810019286420   -3.86122478976294
C         6.25975015822872   -1.40320096211991   -1.81676857142968
C         6.95460436646908   -1.52222705209187   -3.00590313715052
N         6.59186115009588   -0.96663043477582   -4.17505256819774
N         8.16987396523714   -2.09501438655800   -2.86618275806155
C         8.49488488476968   -2.32021582937446   -1.61463060052018
S         7.27693546998837   -1.86615203617217   -0.49792070500799
H         2.11578992341407    2.09777926212857    2.33696156169051
H         2.25235771638856    0.30787862104626    2.50314725669048
H         1.23334598458931    1.01333307648015    1.29785789174812
H         4.33354471762039    0.85509132149280    1.38542652096797
H         3.99242353746305    3.03671566648256    0.56234518496823
H         2.48827195943337    2.62333329933724   -0.37588268731920
H         5.03214711717742    2.90089422876583   -1.48734311755570
H         3.41319497578471    2.50706322148061   -2.26463052387672
H         4.95035624629258    0.77830577374521   -0.53305721134613
H         2.12445893757909   -0.70844623764912    0.21177142753341
H         3.72185751751492   -2.31607344111704   -0.30409727046375
H         5.04613706595751   -1.35190649032079    0.47717762033550
H         5.65788407125075   -0.57503068423068   -4.26230659019724
H         7.11509945111541   -1.18209673441969   -5.01889970290367
H         9.38086535931246   -2.87582763736227   -1.33763696299830
