32
 energy: -49.217392543746 gnorm: 0.286004435718 xtb: 6.4.1 (79825abcba525fcdf90b791dcacef51065a7a4e7)
C         2.87698572067175    1.08445017663193    2.06375972002073
C         3.67160838364944    0.79934974692613    0.76202670644052
C         3.84077312694274    2.04889600418669   -0.16261630416664
C         4.40901477864054    2.03638666234195   -1.64122054903963
C         4.20461531372625    0.41354359012530   -1.66610167250386
O         2.78844415262805    0.21418287600768   -1.32870670227475
C         3.04677672990484   -0.35141295273862   -0.01411994681047
C         3.90938079120408   -1.56370822909607   -0.43932202950471
C         4.58748357649371   -1.23080073137735   -1.80301818486690
C         3.82324041806854   -1.75517566215863   -3.00773954289525
N         3.43903172401726   -2.42775969419961   -4.00275438362108
C         6.03094292508336   -1.52119318147824   -1.81925657540525
C         6.85671784567242   -1.30954306757436   -2.90752612109865
N         6.57971660161677   -1.13246051218097   -4.21101862607356
N         8.16406824155723   -1.21219386769118   -2.58218723507206
C         8.37779897102397   -1.35897941518342   -1.29552342092668
S         6.94994650937884   -1.47960350853628   -0.35568148097747
H         3.42667353099351    1.84391695629868    2.63396280492953
H         2.70781230054290    0.22027733778639    2.71897421754392
H         1.98102386196239    1.59993937294474    1.69130801617120
H         4.64713811928546    0.55576626785482    1.18293741867530
H         4.34168090940320    2.80541279017392    0.44919269769588
H         2.81469452641748    2.44041141816271   -0.28644953742020
H         5.47339158297903    2.27295427156402   -1.76314671686633
H         3.77676587183112    2.69898547359356   -2.25398370013458
H         4.78657568412415    0.36136370019400   -0.72449948066486
H         2.12496627116743   -0.79831858801317    0.38161346039932
H         3.22306817541024   -2.39711743338832   -0.61969642793529
H         4.69371262217063   -1.80651720038365    0.28845197412810
H         5.70767718179385   -1.48483623728909   -4.59657719684374
H         7.35834120280263   -1.02778052946686   -4.85527623340141
H         9.40239660866313   -1.28788125738873   -0.95561741707616
