32
 energy: -49.220642702990 gnorm: 0.276969424645 xtb: 6.4.1 (79825abcba525fcdf90b791dcacef51065a7a4e7)
C         2.67626764912984    0.81359458663947    2.04695322324694
C         3.50567881535956    0.74466050836850    0.73754821275023
C         3.56207171911725    2.14037009093610    0.03486630807051
C         4.41250869374359    2.25447038349847   -1.29669805175588
C         4.29923358542916    0.65490255738288   -1.62006993704033
O         2.85645834643440    0.42522595310103   -1.46268794748160
C         2.97290478995762   -0.31511115985863   -0.21644804849075
C         3.98678138235688   -1.41961103280471   -0.59943199976250
C         4.71422428457149   -0.96322221631551   -1.90052926104592
C         3.97173416891574   -1.45907054726967   -3.13066466678137
N         3.15172515545456   -2.19171657886688   -3.74779930685724
C         6.16778598480192   -1.19639553179295   -1.93143158781929
C         7.02403621018094   -1.57935693015628   -2.94691507884810
N         6.60025707195280   -1.60556903358839   -4.22241686640667
N         8.30747627060251   -1.83189032092401   -2.61002368491264
C         8.48242587240163   -1.61819820233921   -1.32687953528599
S         7.05927434503190   -1.23870696211077   -0.45095612243539
H         3.20889490447265    1.46462395653892    2.75161413673395
H         2.62458863467650   -0.07786974491681    2.68518594285208
H         1.68490311342834    1.23304006712248    1.82681944217684
H         4.49814548289414    0.42221133351733    1.05249812733395
H         3.96064753207735    2.78667661547161    0.82287754283830
H         2.52769695178113    2.49298502922306   -0.13002101289906
H         5.45901306127489    2.49041341656985   -1.06672478908428
H         3.95678780323430    2.93658250227305   -2.03242631375101
H         4.90408391688764    0.48506985455745   -0.70720180070517
H         2.07061281282113   -0.87664726522656    0.06033795306478
H         3.51321200723216   -2.36988379009498   -0.86559842756863
H         4.73497965124910   -1.56192003177106    0.19033703237806
H         5.59668932862155   -1.66164927623573   -4.37402032221537
H         7.13823088466104   -2.16820824278676   -4.87533595237177
H         9.44963189586028   -1.67167338631929   -0.84516979737889
