32
 energy: -49.227920591387 gnorm: 0.281180655644 xtb: 6.4.1 (79825abcba525fcdf90b791dcacef51065a7a4e7)
C         2.32546256459502    0.93237254334675    1.89632598925262
C         3.42765057371008    0.84292561937720    0.80802588800173
C         3.76860163548310    2.18758506293634    0.08650623544360
C         4.54943669774107    2.20916046480330   -1.29159270029365
C         4.42786608912359    0.58784360764801   -1.47206454009694
O         2.96605775440702    0.44593812637351   -1.42623823299831
C         3.00953159837751   -0.25915694322892   -0.15512703887983
C         3.98716240896104   -1.41415443053283   -0.47879541132285
C         4.74891422180259   -1.04505659308485   -1.78792449660306
C         3.95024302598535   -1.48038638987867   -3.00571040341363
N         3.25738165453379   -1.76997235487616   -4.01868780764610
C         6.17032522118510   -1.42892073783531   -1.80806014829338
C         6.88671411213648   -1.64364661979370   -2.97069093861960
N         6.42452972203313   -1.97620925119390   -4.18846280744046
N         8.21456654456260   -1.75192778294930   -2.74804676773144
C         8.51156652156867   -1.64648570031712   -1.47391821275483
S         7.20503819292547   -1.26400306770495   -0.43309812229016
H         2.50120780888936    1.55826748185733    2.78032099541423
H         2.25373324282990   -0.11464415686507    2.21777787327725
H         1.37981477852284    1.30680435564684    1.48069620487035
H         4.33040309216093    0.53022559569876    1.33282450613519
H         4.18192311944899    2.92854657381129    0.77764869402441
H         2.80256542353471    2.68189669857686   -0.12298440210246
H         5.60650961213151    2.45634914182730   -1.13277576541331
H         4.05816770387607    2.73650086367301   -2.12515219326858
H         5.01315967995893    0.42926999890373   -0.54454035208422
H         2.00137154920888   -0.66119106787529    0.01234228740547
H         3.45776394847016   -2.36894353034691   -0.55782624980255
H         4.70465699019735   -1.69154761402595    0.30353582793999
H         5.44230832199908   -1.82083899991763   -4.39912372094948
H         7.09217676202849   -2.03337059585568   -4.95217875284003
H         9.50277620740763   -1.70715850777399   -1.04471717794287
