32
 energy: -49.225820928541 gnorm: 0.283238639532 xtb: 6.4.1 (79825abcba525fcdf90b791dcacef51065a7a4e7)
C         2.39579735499051    0.97389670992110    1.90305183249922
C         3.53643861464210    0.73263886802196    0.87935830310507
C         3.83243362851442    2.10677477455755    0.19446070592102
C         4.53177761780873    2.20934289254290   -1.22318640620763
C         4.40151091808252    0.59472570204824   -1.45135245092159
O         2.94162262419272    0.45616624864706   -1.35835639343768
C         3.02887751234946   -0.29874515751553   -0.11849024961753
C         3.89718127351140   -1.49312231479961   -0.58115016926985
C         4.69401136400764   -1.02831282358512   -1.83786491300243
C         3.97989680154374   -1.64612529815780   -3.02897294946615
N         3.31785726274956   -2.28454074400978   -3.89162554253523
C         6.12795627666470   -1.35402726179508   -1.91453590975517
C         6.91448152528732   -1.55017540219549   -3.03432808916691
N         6.55432433480988   -1.50088279358891   -4.32856055136145
N         8.22480246377643   -1.67642300925367   -2.73166013059560
C         8.42172696993933   -1.49159514944872   -1.44721861966496
S         7.04483835222848   -1.26958399631873   -0.45147543923883
H         2.74999964019631    1.78905449169252    2.54658626718719
H         2.18766032007499    0.04282113592424    2.44572819093927
H         1.43527719410246    1.19960659055860    1.41967505853793
H         4.42712267645025    0.26467071025451    1.29869672252688
H         4.55426921339574    2.49001783985464    0.92220698776387
H         2.95141948759723    2.77405394768524    0.19148230013105
H         5.58726617290807    2.50353173468793   -1.27908844083931
H         3.97103197910300    2.83060754900721   -1.94001909159124
H         4.99822410238413    0.46609527176091   -0.52647252274187
H         2.04421044548303   -0.69056592291427    0.16955723721739
H         3.18804565078161   -2.26116256537986   -0.90576020340555
H         4.62901850943332   -1.89670881593438    0.12970833929813
H         5.61295615963517   -1.72851314862840   -4.63724678583157
H         7.25499222904138   -1.97991121954756   -4.88702120906382
H         9.42102546186687   -1.43593921147425   -1.03649206772242
