32
 energy: -49.226430784978 gnorm: 0.285260963297 xtb: 6.4.1 (79825abcba525fcdf90b791dcacef51065a7a4e7)
C         2.16221374847571    0.79815617235033    1.92888705407955
C         3.29717727118518    0.64619777297974    0.88199512182829
C         3.52776373439941    2.09162567091165    0.33198118337646
C         4.34055029300620    2.30386730245766   -1.01102182155503
C         4.43781567618444    0.70349849716034   -1.33564005573863
O         2.99145193367986    0.45719545037434   -1.41618546854226
C         3.02346282046604   -0.36826772973869   -0.21937364406268
C         4.10519545786560   -1.40150953289749   -0.61536391635456
C         4.87942433440673   -0.84867102082989   -1.85037696687979
C         4.05338809174480   -1.04472282244513   -3.11117753268101
N         3.43711136723251   -1.29853249212065   -4.18160912579703
C         6.31082858778092   -1.16807094842644   -1.98164734405652
C         6.89925542949781   -2.03371813137442   -2.88466418406115
N         6.24620248454387   -2.60379415571385   -3.91214451056946
N         8.18902839976320   -2.35674355974486   -2.64669869311365
C         8.60624983559454   -1.72918660628939   -1.57206892498632
S         7.46074427787227   -0.74505676591686   -0.76217932011896
H         2.41761450113025    1.58715914457238    2.64744310743858
H         2.05009284173272   -0.13160801873069    2.50132729631933
H         1.23957233072602    1.00435711481878    1.36905581091683
H         4.16540168282682    0.30523550178551    1.44598812291463
H         4.08546582416640    2.58003265305560    1.13694298884937
H         2.59278015790317    2.67826215237266    0.27612750543039
H         5.32954414530444    2.77814212952820   -1.03715143528938
H         3.60022666938280    2.72244511172904   -1.71171298340694
H         4.94042424008822    0.59423954667735   -0.35407884863001
H         2.01049407270573   -0.77851131476381   -0.11139857335624
H         3.52057221438230   -2.27758770704261   -0.91341345679659
H         4.91815402067280   -1.57465517017477    0.10081105556024
H         5.32764755020845   -2.28048684894952   -4.20370245125693
H         6.80769674077247   -2.93513879571677   -4.69138578647541
H         9.61677393447840   -1.90372823436064   -1.22744213359876
