32
 energy: -49.229830038974 gnorm: 0.287071029164 xtb: 6.4.1 (79825abcba525fcdf90b791dcacef51065a7a4e7)
C         2.50367529106874    1.20416688459864    1.92595491583716
C         3.46142616221951    0.81890465835601    0.76772240203440
C         3.78574767726724    2.12073017676942   -0.03540469398301
C         4.36826179880015    2.07411502798920   -1.50775991620789
C         4.37986083339995    0.43832153371683   -1.49982337931488
O         2.92038113812998    0.30707325064216   -1.39113236312636
C         2.96971124725929   -0.33905207922074   -0.08926397487562
C         3.91726316526602   -1.50764802139330   -0.45130168243725
C         4.70977545236287   -1.20281704435839   -1.75871147185144
C         3.85231796772561   -1.57191786840534   -2.95826201042795
N         3.18441169861131   -1.71678097904063   -4.01795821273503
C         6.15919615753225   -1.46022243477204   -1.79170319637077
C         6.94767011044456   -1.49688261892994   -2.92660207544362
N         6.62093375107108   -1.46079307575316   -4.23010563861780
N         8.27208050829789   -1.54697553145895   -2.66599677667910
C         8.51900787582255   -1.63479659379688   -1.37989999495269
S         7.13138551724191   -1.64595913752615   -0.37441738175807
H         2.94546329922130    2.08775805104609    2.40362430245490
H         2.33512685246222    0.41063942425972    2.66529649644799
H         1.48581275578292    1.48995617260540    1.62682722241629
H         4.37471238164045    0.54151625591567    1.29414519817499
H         4.53947692141777    2.62942829860325    0.57340969253644
H         2.85637952104822    2.71808445116318   -0.06538777242699
H         5.39785259151818    2.44752471111772   -1.57284616778804
H         3.72925159002193    2.49229588635724   -2.30214349964336
H         4.92553183344862    0.42288576105851   -0.53544783611753
H         1.92504094097658   -0.61900897400268    0.10139851809223
H         3.35902760120378   -2.41744400109603   -0.69373757830715
H         4.56736821093592   -1.71254907226435    0.40844630993356
H         5.69369951102497   -1.10182658768611   -4.44142658161530
H         7.34187984093964   -1.44710374435349   -4.94587890745983
H         9.56059861496595   -1.60486597669311   -1.08906627862309
