32
 energy: -49.230817323036 gnorm: 0.281130699686 xtb: 6.4.1 (79825abcba525fcdf90b791dcacef51065a7a4e7)
C         2.39517662341265    1.28882910284397    1.87905473961296
C         3.43535155830635    1.02625496211671    0.75820363598856
C         3.45072230128380    2.29262427199989   -0.15886766285100
C         4.23672225477217    2.17129145556888   -1.52883408138216
C         4.32076121219977    0.53759797568079   -1.52978922877688
O         2.89478066950715    0.22092841648105   -1.37035049832324
C         3.08812252414847   -0.24361689963811   -0.00594979567839
C         4.12693194875421   -1.37591658024854   -0.18847330211408
C         4.73525517033017   -1.10337199811352   -1.59772143366557
C         4.04493383682358   -1.65643244653342   -2.83383261316705
N         3.66139621920957   -2.15062372852115   -3.92869060333925
C         6.15525624806669   -1.43664810175678   -1.79943988647474
C         6.97414598447776   -1.27876062517975   -2.90194691015580
N         6.64942917024274   -0.65249631408079   -4.04629503893796
N         8.25995415179931   -1.67587341346400   -2.78581722880331
C         8.43846977921063   -2.24487172517766   -1.61658513648071
S         7.11259402965541   -2.12842835328342   -0.53718246173876
H         2.83724455818015    2.08000391273307    2.49767934134274
H         2.25723731808000    0.35694731808059    2.44233927427507
H         1.43705534974718    1.59516395400696    1.43705969527984
H         4.40869345941840    0.90618661099928    1.23396212384503
H         3.95505722126451    3.11827443528076    0.35248799115721
H         2.41416275505999    2.61291492278044   -0.36961511484138
H         5.26856643053258    2.50861146938456   -1.36995987598244
H         3.75542749076670    2.69119018092472   -2.37282176367087
H         4.79499014765205    0.58272125525404   -0.52924632546124
H         2.16267312832570   -0.71988605787644    0.34444313192819
H         3.60774748668066   -2.33762598899862   -0.12770050820080
H         4.93823646119181   -1.21410103339694    0.53221271802864
H         5.66110062095944   -0.49282368978250   -4.22232954313029
H         7.18004638721925   -0.91032248192415   -4.87349094734311
H         9.40110838488621   -2.69135414541917   -1.40593917210725
