32
 energy: -49.228516282070 gnorm: 0.274026449220 xtb: 6.4.1 (79825abcba525fcdf90b791dcacef51065a7a4e7)
C         2.07815191818125    0.90163042895590    1.68389535415782
C         3.34964382076536    0.63941375497845    0.83432662184647
C         3.78554024925970    2.05487471441709    0.33291677515266
C         4.58725858281171    2.19773890939760   -1.02581907388469
C         4.48586033336936    0.60360200446026   -1.37861333690301
O         3.02707725653972    0.42876829331290   -1.40110637549432
C         3.00650758769523   -0.41013439949980   -0.21342297372281
C         3.99259445841769   -1.55277085744476   -0.55482747371131
C         4.78718484964178   -1.01348598096914   -1.78288119363658
C         3.92297819473119   -1.14512739549656   -3.02634717440934
N         3.22376123097368   -1.07644616059823   -4.07344729907459
C         6.22033848869019   -1.34269337869713   -1.85942857107193
C         6.87080967228361   -2.02205933482642   -2.87253258539782
N         6.30311985929682   -2.66495884947028   -3.90770848102827
N         8.20835653959129   -2.12121417014251   -2.71245755541126
C         8.62419305063222   -1.44144563349588   -1.66951684435496
S         7.37735652428617   -0.74426684252237   -0.72296726448342
H         2.25391860641091    1.76473021508916    2.33829803403098
H         1.90821764223143   -0.02913438523703    2.24024019571211
H         1.20613126409148    1.17016197560262    1.07179420003123
H         4.02839666202422    0.24740347512962    1.59180898209032
H         4.38736309700779    2.44870038375377    1.15768771999162
H         2.89024804779016    2.69262330735003    0.21809130009750
H         5.63370529678242    2.48024302712560   -0.85591054637995
H         4.15186443894394    2.95087140162269   -1.70219022685846
H         4.98767272364684    0.45145335778714   -0.40237033016504
H         2.01545107804180   -0.81806956932555    0.02628516723686
H         3.30178895465638   -2.34546065252822   -0.85906664961914
H         4.67801574106140   -1.80191335349100    0.26487570680735
H         5.38260350965570   -2.30935664803287   -4.15158046086027
H         6.95669426448403   -2.87398073552317   -4.65699640094003
H         9.64305261301407   -1.50073052583368   -1.31062709396235
