32
 energy: -49.227534135943 gnorm: 0.281332146982 xtb: 6.4.1 (79825abcba525fcdf90b791dcacef51065a7a4e7)
C         2.27355769427649    1.30207151834811    1.81032685039051
C         3.39772090248121    0.96896518412625    0.79420012548541
C         3.55792582923538    2.25638402638978   -0.07863110699674
C         4.26108648399036    2.12589842264137   -1.49208933627540
C         4.32700072476128    0.49500293423001   -1.60096118321069
O         2.91202343992483    0.18563800271908   -1.35346683778151
C         3.06784649915955   -0.29367766312075    0.01062566867352
C         4.13876417864390   -1.38850199884849   -0.21081825106476
C         4.78224969240609   -1.13652949671173   -1.60822808544050
C         4.03188410025163   -1.70249279193542   -2.80281056061757
N         3.51097573773178   -2.11598239071165   -3.87412796506167
C         6.19960734924857   -1.46037960680495   -1.84143345986956
C         7.01097565068302   -1.22127831224204   -2.93484219054010
N         6.55268255238640   -0.74466102221902   -4.10530536138472
N         8.31592839023695   -1.53125640959663   -2.77515737461290
C         8.51735307505260   -2.08543467116166   -1.60253418562608
S         7.16790919406490   -2.07162498775416   -0.54639678855177
H         2.56355181129856    2.16942307908493    2.41669531793411
H         2.27582938922523    0.43056325331287    2.47755137264970
H         1.29159452355182    1.46369728665121    1.34468484509138
H         4.34481089903045    0.87380302764269    1.32535142749987
H         4.09634459482467    2.96053982196067    0.56309029358288
H         2.53154454392836    2.63619779997134   -0.23270653146463
H         5.25986343607883    2.57846115447841   -1.52896451996166
H         3.52391603901734    2.48447961897932   -2.22846818790681
H         4.86154779764864    0.62287177606444   -0.63871158717756
H         2.09412382638102   -0.64317637060876    0.37910756379587
H         3.69071735339106   -2.38666928521029   -0.24317469485914
H         4.98342185264699   -1.39320238943804    0.48940952844542
H         5.59649487315890   -1.01760154951551   -4.31622100200275
H         7.11859933273829   -0.71666021592490   -4.94865356086808
H         9.51128786182426   -2.24482113379999   -1.20619978917401
