32
 energy: -49.228891102250 gnorm: 0.285836482929 xtb: 6.4.1 (79825abcba525fcdf90b791dcacef51065a7a4e7)
C         2.24993232992722    1.25899520965073    1.86184442108987
C         3.36798695620576    1.02126588216761    0.81272341291033
C         3.48418912181285    2.28048701223973   -0.10695395344898
C         4.11743861428440    2.19683045808375   -1.55654776957604
C         4.36880056412833    0.58487484301622   -1.43640572592549
O         2.93739817044681    0.28524760546103   -1.29346680362187
C         3.09144422823102   -0.26339707896454    0.04445379351123
C         4.15030600628673   -1.34658217669952   -0.27187545346424
C         4.83350930176994   -1.03157164738024   -1.63727635665723
C         4.05011847751005   -1.65273694350583   -2.78219676537865
N         3.41035629092417   -2.05091462217087   -3.79323535375495
C         6.24118737186759   -1.42545182234373   -1.81466636568109
C         7.03729464429976   -1.27052516109015   -2.93414907806359
N         6.70064651606737   -0.70775880862791   -4.10766631847050
N         8.30658349007031   -1.72344682897535   -2.84329146285507
C         8.55007113017362   -2.27348215061032   -1.67671291549281
S         7.21126904400273   -2.19712825542361   -0.60975708107927
H         2.38519655444562    2.19611467967913    2.41645124099296
H         2.18754608781758    0.42229617871234    2.56949056707242
H         1.27054585101465    1.27315550245760    1.36405064234636
H         4.29240051074683    0.99334084489881    1.38964349065213
H         4.00410388356911    3.09870632038276    0.40072932660781
H         2.43047500969967    2.57884803899890   -0.25569383159015
H         4.98880279799116    2.86245617646196   -1.51919721386819
H         3.48586327709806    2.48269484142908   -2.41308071896801
H         4.86202426965364    0.52642223277315   -0.44578523523895
H         2.12651993044048   -0.72689108806124    0.28972609319652
H         3.63681613299075   -2.31325491224588   -0.27354920090478
H         4.91364297309245   -1.35860274304865    0.51613457397353
H         5.69925964826444   -0.64910678984152   -4.27216889960703
H         7.43526333644007   -0.77713793511652   -4.80609792013322
H         9.51419318713014   -2.52420101221680   -1.25481237036244
