32
 energy: -49.230475563734 gnorm: 0.285823692770 xtb: 6.4.1 (79825abcba525fcdf90b791dcacef51065a7a4e7)
C         2.30185552782603    0.84943489313098    1.99820858489698
C         3.38182151653782    0.65031515140994    0.90219715180364
C         3.60832842823372    2.08527037269599    0.32379816496315
C         4.31989486807779    2.33708759276448   -1.06889234595704
C         4.43212532065808    0.73672554138167   -1.38867895286211
O         2.99418669721236    0.43554656997659   -1.36139211830450
C         3.01789747839802   -0.37996978567501   -0.15758832415334
C         3.99117039201948   -1.44360643399760   -0.71969092232760
C         4.80707866808628   -0.83401205284574   -1.89994783481104
C         4.07997801860870   -0.99601774404846   -3.22488898114876
N         3.50160974683106   -1.13653508313830   -4.33654772374898
C         6.20416358596196   -1.29621554515373   -1.95179385472513
C         6.85224357967386   -2.13559524711797   -2.83862226218649
N         6.34651962489003   -2.82491342525417   -3.87605388011044
N         8.17307356728929   -2.23372037577438   -2.57354318798443
C         8.58382217270139   -1.64884660770452   -1.47266224615623
S         7.32466434782924   -0.72670242409113   -0.76499892802529
H         2.59709904352409    1.70431793266306    2.61956539985389
H         2.27893293189798   -0.08138331142231    2.57939048781988
H         1.33807909222125    1.01796806990391    1.49828000432223
H         4.35376372906827    0.37904831637575    1.31438599689377
H         4.10204961671113    2.68802328736428    1.09221525250426
H         2.63930074808982    2.58255561095600    0.13631741784188
H         5.33754172465976    2.74209987001405   -1.00495380530003
H         3.73775782513917    2.91934163319507   -1.80125239482547
H         4.92196939305623    0.50395340079193   -0.42230159041136
H         2.01483806394189   -0.79961184315643   -0.00319773739141
H         3.35971521497503   -2.28955953149851   -1.00910160619853
H         4.73068537423262   -1.78662888566151    0.01463925804597
H         5.38481727414212   -2.62964184356749   -4.14114709331749
H         7.04000740788086   -3.14307281201835   -4.54697215709161
H         9.53355259551669   -1.64960249406363   -0.95458608473049
