32
 energy: -49.226384292129 gnorm: 0.280008671836 xtb: 6.4.1 (79825abcba525fcdf90b791dcacef51065a7a4e7)
C         2.55957100563958    0.66875591396439    2.04466532170460
C         3.55132915613223    0.62996205802589    0.85213562523947
C         3.70166267057391    2.07956937149837    0.28557960393230
C         4.37648984509728    2.25855578270398   -1.13635489413963
C         4.38193200412431    0.66246005121137   -1.49477735272655
O         2.93127781413527    0.44495288019466   -1.40867344766114
C         3.00704252399069   -0.34016245153694   -0.18694257556291
C         3.88899720107688   -1.51085270127379   -0.68311058430048
C         4.70320275341854   -0.95305690224239   -1.88986289284503
C         4.06245807578871   -1.10595453776517   -3.25970186232433
N         3.64537015830221   -1.24573632550618   -4.44145431337738
C         6.15682147575999   -1.17393695616832   -1.96968120723267
C         6.85731664338712   -2.02288291118976   -2.80611881475330
N         6.37085371875213   -2.61884848542717   -3.90855225200957
N         8.15099126791680   -2.19628109175082   -2.45851797516558
C         8.43629286947251   -1.50642862131901   -1.37896382811392
S         7.15703000342040   -0.60630349618894   -0.67905170841480
H         2.90914805249675    1.36413872779075    2.81817464069536
H         2.56569942120200   -0.36846865675098    2.40361937476092
H         1.56498504134418    1.00699957132332    1.72281594276245
H         4.51655212802834    0.30501755781331    1.24061044928390
H         4.30476043382601    2.72585722671618    0.93065448679835
H         2.72093750446026    2.58738298130579    0.32752919411065
H         5.33284991991582    2.78982794767313   -1.05356904576168
H         3.69681450437431    2.72787149510724   -1.86576475589138
H         4.94612931011679    0.51978155385156   -0.55172934633057
H         1.96016125299136   -0.62379653246021   -0.01473511982019
H         3.26568265762242   -2.37224368668287   -0.94314014085613
H         4.56159580907928   -2.00312914544755    0.03037566508632
H         5.46306215663849   -2.36403619225215   -4.28837060943056
H         6.92044228014293   -3.24671321163429   -4.48822485585731
H         9.41693248603207   -1.64746672766404   -0.94440019241713
