32
 energy: -49.228168420567 gnorm: 0.277494360353 xtb: 6.4.1 (79825abcba525fcdf90b791dcacef51065a7a4e7)
C         2.03271077561539    0.84167529216222    1.74840293114925
C         3.30259308711725    0.78020013288592    0.85911333191852
C         3.48150785056596    2.19971060077641    0.22829894160924
C         4.44608220682874    2.30305221051074   -1.02399590766187
C         4.52974777650356    0.69628148962493   -1.31947140981861
O         3.08467380849185    0.44003822123701   -1.39173097713049
C         3.03534862596801   -0.32319556428658   -0.15487451173023
C         4.07446953123522   -1.41779841951218   -0.49636352740755
C         4.88443700167780   -0.90902316286789   -1.72738685642186
C         4.00589910605773   -1.23896701100584   -2.92308685246738
N         3.19556967181789   -1.55254649275701   -3.83691083235468
C         6.29261406823672   -1.28675952183151   -1.93358807802610
C         6.89696760052749   -1.93374013205050   -2.99528647547235
N         6.37856975334232   -2.30943954065364   -4.17735849453851
N         8.23316799486193   -2.07378298416076   -2.85584537751160
C         8.65823374746342   -1.63088563892399   -1.69571967756611
S         7.42461678671369   -1.07439345966861   -0.64447215888447
H         2.09561745404680    1.80476822808394    2.27048796579283
H         2.02612873133971    0.03037386699710    2.48763703065181
H         1.18537619670601    0.91915312849323    1.05326385744025
H         4.18877927498865    0.58880985319405    1.46425860806350
H         3.91450360699032    2.72995494413587    1.08205073209692
H         2.51573795115954    2.67940349185709   -0.01385702783484
H         5.43521391324430    2.65909128744047   -0.71001684817437
H         4.10803233783512    2.94809980877337   -1.85097258637903
H         4.92635173839422    0.54543507347634   -0.29576932966588
H         2.04669291871678   -0.77686892025160   -0.00386299860867
H         3.61746323694907   -2.37186587776195   -0.77748870079466
H         4.66379894199456   -1.68532317865430    0.38958735565333
H         5.36536595956810   -2.27237815269775   -4.25030600469217
H         7.01954226687247   -2.58999499890428   -4.91405714723559
H         9.66646773628282   -1.65835061083664   -1.30443812008821
