32
 energy: -49.160092792181 gnorm: 0.296748360729 xtb: 6.4.1 (79825abcba525fcdf90b791dcacef51065a7a4e7)
C         1.91471171625018    0.51772277537882    1.76777046227814
C         3.17786594596048    0.21590539235496    0.91891009344699
C         4.00664294457265    1.54156928070899    0.89261958890825
C         4.46205783147558    2.16408571540012   -0.49099745765848
C         4.36714331512311    0.72779674808565   -1.26822522977184
O         2.89824004116501    0.73766969917192   -1.23153054172245
C         2.80219186637715   -0.44972437583564   -0.39747853015216
C         3.72779802138103   -1.46337256161624   -1.11184048443411
C         4.71189337641852   -0.72452939771714   -2.06891161932688
C         4.73058255411906   -0.91478837901277   -3.57683814958319
N         4.91818474543129   -0.57654715687465   -4.77702083493207
C         6.10828534529197   -1.17921182105175   -1.96158162462769
C         6.73099209648182   -2.40476263736205   -2.10749987378244
N         6.15775817840945   -3.62009919689562   -2.06824988457941
N         8.00736349529643   -2.21296807316005   -2.50571868586952
C         8.43502817793965   -0.97402878031207   -2.43598389013772
S         7.22186887273440    0.14298716092149   -1.97000579554590
H         2.28689504916235    0.71342285103094    2.78130836646374
H         1.26886363558496   -0.32573569286410    2.04377489640854
H         1.23669276391811    1.35766510348303    1.56286995103141
H         3.67136022246479   -0.53001450726695    1.54198625629018
H         5.01950014687796    1.48586167345951    1.30317221359351
H         3.47269691090752    2.44659020326370    1.23510323079651
H         5.39913941547508    2.73255481676211   -0.44150816631194
H         3.67646311191530    2.82870547915891   -0.88517515710420
H         4.66732456971665    0.24721808481746   -0.31588565858341
H         1.77632282371739   -0.82539731536521   -0.28555603022241
H         3.26712122693230   -2.29212176062767   -1.65872482392616
H         4.38054954800972   -1.98730069172014   -0.40247289092709
H         5.64804450503644   -3.55609910211544   -1.19111090772109
H         6.87440168590913   -4.33941848189257   -2.10408131531395
H         9.43004008368839   -0.62120100484770   -2.67232099394105
