32
 energy: -49.229898782484 gnorm: 0.284477843831 xtb: 6.4.1 (79825abcba525fcdf90b791dcacef51065a7a4e7)
C         2.15771524947967    0.89602848187908    1.84060446512199
C         3.38680523926854    0.71369133624492    0.91146118521308
C         3.59986053264147    2.11323276385116    0.24750449012223
C         4.25109510916856    2.31877014518114   -1.18182174444779
C         4.45691080246211    0.70681382511580   -1.36958379989724
O         3.02732602471781    0.36738238579846   -1.35563763074412
C         3.09396825479105   -0.37761939349749   -0.10851940671960
C         4.11406257935204   -1.46563268016480   -0.52104465194742
C         4.84200435260060   -0.89218875104729   -1.77467172728662
C         3.99055322944646   -1.05588824311509   -3.02312025464944
N         3.32673134013636   -1.16569442390081   -4.08957384202183
C         6.25358440653479   -1.25958701826994   -1.97623223165152
C         6.89097503957383   -2.02356203548790   -2.93597488183187
N         6.46985755014676   -2.41893910000728   -4.14986024466330
N         8.21113674582477   -2.18559434518635   -2.70059026388167
C         8.57529641770147   -1.68686483068675   -1.54240755040630
S         7.31670334254576   -0.93970669845063   -0.65116465766352
H         2.31432755641442    1.74954022991288    2.51222066350561
H         2.08426052322848    0.00656335492282    2.47949144344323
H         1.25675066294611    0.98760635861682    1.21845227969666
H         4.16986838830092    0.41199215132197    1.60712397078045
H         4.28771129077273    2.65672825499101    0.90249341783551
H         2.60813578081932    2.60005044870968    0.27827529416731
H         5.20852554889511    2.85454416763337   -1.18065634761026
H         3.45722222344774    2.71623741076583   -1.83453926826092
H         5.00326963848769    0.58926622763325   -0.41266694067651
H         2.15436654661966   -0.91527797259901    0.07623985031413
H         3.67395126797010   -2.41962063768403   -0.82819257025572
H         4.86774995444421   -1.71940087224100    0.23482879633606
H         5.47698373444596   -2.44587313716021   -4.36608456373610
H         7.15161831118142   -2.74621066593564   -4.82837157149859
H         9.53638429001269   -1.86425127466627   -1.07847273824273
