32
 energy: -49.231531562496 gnorm: 0.281125736992 xtb: 6.4.1 (79825abcba525fcdf90b791dcacef51065a7a4e7)
C         2.08123603425611    1.25256382522374    1.71056429443813
C         3.28002460904445    0.97393460986891    0.76584847262406
C         3.48928206026196    2.25166208449972   -0.11083338329651
C         4.44321887533388    2.18080470059892   -1.37349301819270
C         4.48034738449252    0.54538195797668   -1.36785462410839
O         3.04755045531163    0.22633448044622   -1.43435650129889
C         3.08461471539817   -0.28164886270899   -0.07224348640457
C         4.15802609676961   -1.38452059007258   -0.23350221908724
C         4.87015214330766   -1.08822466627386   -1.58827276281154
C         3.99188438939485   -1.48667362627432   -2.76312358366542
N         3.15920002079066   -1.81222678957336   -3.65233224109349
C         6.23980363053797   -1.57896229304804   -1.81498350724025
C         6.97633741532049   -1.41159799066384   -2.97279946373499
N         6.45514404230285   -1.08678867842134   -4.16864101929227
N         8.29450396445539   -1.69997698585053   -2.91146575138265
C         8.58839460009938   -2.00017004886439   -1.66798554839019
S         7.31047771938356   -2.00465344917556   -0.52626577377529
H         2.23458458296133    2.22516226568302    2.19493453788576
H         2.00299240897963    0.51709072647318    2.52153755880640
H         1.15333176648862    1.25632784008509    1.12219660560156
H         4.16472906072953    0.84261485285329    1.38891360489999
H         3.90113736367059    3.02632192450462    0.54324142143479
H         2.50304025105083    2.63773783210218   -0.42663220151279
H         5.43826622168535    2.58746121373596   -1.15385816679510
H         4.07215472348617    2.60920096782716   -2.31850232162813
H         5.00731855843318    0.53702355400494   -0.39304858612015
H         2.18208093582013   -0.81962754514489    0.24724957218529
H         3.67778968585518   -2.36803882005129   -0.21951256692494
H         4.92619828069757   -1.27218545564054    0.54179123406189
H         5.44907491493203   -1.04045523906227   -4.30631795479071
H         7.08303944973921   -1.00688457917250   -4.96340181868392
H         9.55897453098426   -2.22617597293908   -1.24693058765721
