32
 energy: -49.227576102750 gnorm: 0.282880947328 xtb: 6.4.1 (79825abcba525fcdf90b791dcacef51065a7a4e7)
C         2.31077145957213    1.02581999014392    1.93968669420745
C         3.35358498943302    0.83349338261310    0.80709378876719
C         3.52208070510617    2.22708371786689    0.11828145710575
C         4.30977221764961    2.30495962534193   -1.25387122847991
C         4.41993504244044    0.68234254793640   -1.42992755209923
O         2.97596187101991    0.41068318073642   -1.41369491849478
C         2.99916500370080   -0.29995564382355   -0.14514189345237
C         4.10566413183446   -1.34406507405123   -0.42805105994151
C         4.83699473902803   -0.92965047963113   -1.74096160351086
C         4.01344518618928   -1.33047290423133   -2.95401468577100
N         3.30823074684211   -1.66284501313577   -3.94509567501083
C         6.24342489993225   -1.33706049448448   -1.89632455668326
C         6.91679566321630   -1.80723033215980   -3.00832398817403
N         6.57876555581933   -1.77773241805440   -4.30911073244750
N         8.20269799089760   -2.13072123992024   -2.75084359268446
C         8.51182337237537   -2.02444078828178   -1.47967225995080
S         7.26240636682127   -1.37882063933104   -0.50051575212261
H         2.27360761104280    2.07976282462429    2.24283910891980
H         2.46350180495287    0.32366076440780    2.76936509152673
H         1.29704127674729    0.89105900468542    1.53795590306512
H         4.20760159651749    0.57363518065007    1.43262264849013
H         3.98529728404626    2.80474134280530    0.92405970068315
H         2.50004145523887    2.61700270110859   -0.03937399323394
H         5.32973877279032    2.70749201811831   -1.21693740079480
H         3.76597232594152    2.73831834517839   -2.10870246866202
H         4.94957550581156    0.61861875193553   -0.45862144584977
H         2.05620260431892   -0.82956801795487    0.04563741883730
H         3.67947089634181   -2.33710698694331   -0.60228629553726
H         4.83917706959588   -1.37628967079132    0.38724518705856
H         5.62037903813657   -1.87142484224788   -4.63467765835572
H         7.31089584429265   -1.91253967961132   -5.00055435046851
H         9.53460679227335   -1.95615262200051   -1.13377897958380
