32
 energy: -49.231978850186 gnorm: 0.280558767275 xtb: 6.4.1 (79825abcba525fcdf90b791dcacef51065a7a4e7)
C         2.69690560487773    1.10057469904149    1.94562150798744
C         3.62972273031034    0.83202613318217    0.73527025728330
C         3.77977221292412    2.16238580109643   -0.07255123614150
C         4.29681449551995    2.17377961703962   -1.56983645686426
C         4.29593196020471    0.53958552674782   -1.64350301292874
O         2.86294749747181    0.34472999617548   -1.38329602076912
C         3.02360821418600   -0.29596230616753   -0.08773660169016
C         3.96003412196477   -1.47629929204324   -0.44051632828347
C         4.63252110404796   -1.11318343108966   -1.79927536896987
C         3.87329202519565   -1.68152955196960   -2.98710706003133
N         3.41435027072824   -2.30495637676848   -3.98247211778326
C         6.09073843060436   -1.31754674451757   -1.80133127252287
C         6.93105386196218   -1.31524963348503   -2.89900850134801
N         6.65564960131917   -0.99492169099947   -4.17522287924929
N         8.22266717838697   -1.56220443110911   -2.59040570369739
C         8.39766058536355   -1.83930987319730   -1.31945311845417
S         6.97454557233168   -1.72266154291133   -0.37195508495527
H         3.05021710738238    1.96311845541626    2.52464420793741
H         2.62300601349903    0.22085239768905    2.59780852304380
H         1.69529737670202    1.41364549236631    1.62009935673835
H         4.59523094778174    0.57756571303316    1.17253537280480
H         4.45940969467667    2.78016909527103    0.52240523651487
H         2.82765874958008    2.72356258152221   -0.06844540324037
H         5.36155930287860    2.43827257128658   -1.57933299776852
H         3.68332228362739    2.67997444033210   -2.33249539568636
H         4.87744817040871    0.48835996129177   -0.70157406889399
H         2.03482403969877   -0.64731167509488    0.23618248677086
H         3.42723888755176   -2.41630336315122   -0.61559464352612
H         4.63838108033614   -1.71172322955265    0.38906705635665
H         5.67490975456128   -1.07985003072929   -4.42862640271751
H         7.32131640030889   -1.18875248327260   -4.91792023978212
H         9.39816756422976   -1.93843733686313   -0.92001490078697
