32
 energy: -49.230410126987 gnorm: 0.279367113850 xtb: 6.4.1 (79825abcba525fcdf90b791dcacef51065a7a4e7)
C         2.47579483680445    1.20983239721076    1.87173854702918
C         3.53569125675396    0.90439687899927    0.78061756701477
C         3.74415651111235    2.22650328003808   -0.02779084161616
C         4.46096986303077    2.07075621715649   -1.43180189453078
C         4.35410715479867    0.43975014475819   -1.49826546255288
O         2.90210754287728    0.23663841496264   -1.40047190360627
C         3.01553131769012   -0.26677510642736   -0.04088278416283
C         3.92797893048443   -1.47210286646008   -0.37128670452862
C         4.63160807609637   -1.21391477537961   -1.73824058561175
C         3.92856570048769   -1.70383769070709   -2.99366767307842
N         3.46061499090972   -2.04452970131731   -4.11393157748758
C         6.06727393085901   -1.52700711740971   -1.83312519271931
C         6.88601998897363   -1.36211757128267   -2.93471355653429
N         6.60342166539419   -0.99009665013652   -4.19523696268334
N         8.20493949949078   -1.50079451239558   -2.67837911569389
C         8.47601950115729   -1.76106800136741   -1.42080051559330
S         7.06857551826456   -1.75903703287513   -0.44319476428930
H         3.03044965328850    1.75633605766762    2.64489430116265
H         2.23612800810240    0.26362535950468    2.37370710439573
H         1.53040087190518    1.72578850945088    1.65444479242420
H         4.40929953112976    0.61716050090683    1.36581911224824
H         4.30052998359656    2.98227681828931    0.53505143201123
H         2.72657411156437    2.61923223216994   -0.20596579039211
H         5.52520772476840    2.33727103633874   -1.44159129510786
H         3.89996490505509    2.52193249576677   -2.26604883177344
H         4.95408852526195    0.34594424457460   -0.57131449151994
H         2.01553327087384   -0.53828671075945    0.32291585536496
H         3.32085301566833   -2.38288750071083   -0.37074330215700
H         4.69115894364473   -1.60981812555710    0.40484369159010
H         5.63171605655094   -1.04163391891624   -4.48919092859343
H         7.39685052802829   -1.11398620101084   -4.81765487375516
H         9.48508804194618   -1.92456304678592   -1.06662343024742
