32
 energy: -49.224768853184 gnorm: 0.285477064729 xtb: 6.4.1 (79825abcba525fcdf90b791dcacef51065a7a4e7)
C         2.70100349954987    1.18687415366954    1.97595302816851
C         3.62205633720208    0.90057913737667    0.76066989053938
C         3.66596078481050    2.15268952212318   -0.17487232761511
C         4.27409553182545    2.03141395909346   -1.63253824955476
C         4.24342319579244    0.39587655711247   -1.62281798687068
O         2.81106987538913    0.20566361964854   -1.35579021918887
C         3.06527641205743   -0.28722481774841   -0.01146409561118
C         3.93719127533377   -1.48990800499913   -0.44489233093738
C         4.66247059820727   -1.23561801516545   -1.80121991361432
C         3.91972768333096   -1.82138135607384   -2.99101170921944
N         3.17579401296044   -2.09398205265075   -3.97197638680669
C         6.11224312572483   -1.49315443844761   -1.80221147353020
C         6.98190996558446   -1.27198648903789   -2.85377932477509
N         6.61087079716167   -0.80379462922654   -4.05806623761932
N         8.29968465607542   -1.34500197512573   -2.56633206474586
C         8.54926754086700   -1.63139706688106   -1.30998146544365
S         7.09697388879025   -1.90177331573986   -0.44144503685708
H         3.13088423145999    2.04126527091177    2.51381584680744
H         2.64460176854858    0.39844235455381    2.73747421779272
H         1.67207071900095    1.40622147086865    1.65912322746423
H         4.62929354251685    0.62074888056764    1.06941775506767
H         4.25106181901769    2.96390819101814    0.26910690660235
H         2.60692706579839    2.41963859732290   -0.34411197232000
H         5.30462154956292    2.40780917896586   -1.64096289323623
H         3.60239209836533    2.43569427387923   -2.40689377318625
H         4.93373713951145    0.46530524181586   -0.75872215261872
H         2.05866251340570   -0.57794265617680    0.31758862853544
H         3.27154575955830   -2.35883969685485   -0.44703489873633
H         4.65823169234092   -1.59141290922002    0.37582996921224
H         5.64277982537508   -0.90764384817480   -4.35011422587438
H         7.32091149469795   -0.68183138551814   -4.77448037204320
H         9.50876521015895   -1.91636575162407   -0.89943496442151
