32
 energy: -49.214374288170 gnorm: 0.269913143603 xtb: 6.4.1 (79825abcba525fcdf90b791dcacef51065a7a4e7)
C         2.40505368510282    1.30461444858800    1.97400198828333
C         3.35922958328673    1.09278890825086    0.76905611338000
C         3.30980748512548    2.28064645156426   -0.24657135929495
C         4.28676809739174    2.18204159996983   -1.48961222951198
C         4.43327052978784    0.55294914267702   -1.51436373628773
O         3.01690958061069    0.21051205719312   -1.32520946316320
C         3.10789960620761   -0.22938998356799    0.05789563448802
C         4.13232814331905   -1.35800745087047   -0.20914592327737
C         4.72436581657637   -1.11170349632700   -1.63011170386250
C         4.01169144279485   -1.72471466872973   -2.82455835013310
N         3.89488311389860   -2.31652307228303   -3.93187888991736
C         6.12027289430237   -1.55194400432097   -1.79072953165786
C         6.86997752825035   -1.30720347287127   -2.92610420140190
N         6.42313739450318   -0.68318520341636   -4.02978700741332
N         8.19070581463217   -1.57959982699245   -2.84887509092440
C         8.51105155238940   -1.98649639038482   -1.64283015492963
S         7.18784655141602   -2.13986280921015   -0.56476570271225
H         2.64487691243452    2.11949181029497    2.66865135301818
H         2.53675426650225    0.41068588266441    2.59711277702921
H         1.36006989005459    1.29435451690367    1.63473714194965
H         4.37560104898659    1.07534673461191    1.16255556210652
H         3.50469552392317    3.19204006064891    0.32694136721113
H         2.26273712635409    2.33577259908279   -0.59594372809227
H         5.32873690030131    2.50914931874368   -1.38458956081442
H         3.89721604884901    2.70865411195710   -2.37571775550996
H         4.98371237364237    0.62180888144772   -0.55504762200742
H         2.16054671608299   -0.76109078707638    0.21877091027009
H         3.61029012118083   -2.31848193312368   -0.26478675895316
H         4.99667490365481   -1.57259174156468    0.43167064996527
H         5.40729771756736   -0.69665007029998   -4.06392300161078
H         7.01439461033360   -0.61213356610935   -4.85298115435291
H         9.51204529510907   -2.23611328031106   -1.31710896525889
