32
 energy: -49.233068757118 gnorm: 0.278469868600 xtb: 6.4.1 (79825abcba525fcdf90b791dcacef51065a7a4e7)
C         2.30508824778676    0.82507134834834    1.98224695028204
C         3.41315499555597    0.68049578082610    0.90590952309931
C         3.69447919777414    2.11790476868943    0.35849802471141
C         4.47105342837849    2.24580180723701   -1.01623845138129
C         4.32742184528220    0.66852482423057   -1.42561008903512
O         2.87823682818646    0.44408533297437   -1.33281718389659
C         3.00643129888243   -0.36006389031393   -0.12795914095033
C         3.95684833886192   -1.45837209790564   -0.66178396225855
C         4.71524639201729   -0.90827349265896   -1.90779435888559
C         3.99430891268953   -1.25640204409074   -3.19986474745510
N         3.59765794648845   -1.49559126933031   -4.37268044489520
C         6.14969866985083   -1.23796104320470   -1.95044552631623
C         6.87430777759617   -1.89608678942404   -2.92658215974060
N         6.44427445569609   -2.57380738171660   -4.00498225772832
N         8.15954693169145   -2.14704457696182   -2.59542084177545
C         8.55643724872282   -1.50829223746090   -1.51968662016059
S         7.25082671017621   -0.74771303144116   -0.71128320094527
H         2.55199060731373    1.64171014633595    2.67233269468591
H         2.27419788466873   -0.11462322847624    2.54858630722696
H         1.34319201870980    1.01789798734562    1.48750402030844
H         4.29679796547896    0.38893674051521    1.47364663700419
H         4.23303557686078    2.69086734786120    1.11955480114874
H         2.73641179624668    2.64304492039265    0.19179182303600
H         5.52866045720033    2.50994900202160   -0.89205375654469
H         3.92400762466392    2.80324370361452   -1.79357619817245
H         4.89137964572164    0.35865276368612   -0.52342041636703
H         2.05883354421403   -0.79488555786515    0.21708101525795
H         3.38540610872019   -2.33227768023304   -0.99022519063183
H         4.70587924777016   -1.79991143095090    0.06353748481317
H         5.50714024854607   -2.38195824999232   -4.34885752794870
H         7.16147278691304   -2.80873769770113   -4.68521481726168
H         9.54413498861687   -1.41863172033493   -1.08747657493885
