32
 energy: -49.228741102682 gnorm: 0.278376017431 xtb: 6.4.1 (79825abcba525fcdf90b791dcacef51065a7a4e7)
C         2.58630839263715    1.24471500355166    1.95664295460842
C         3.52135491102117    0.88184151690679    0.77290856310409
C         3.51309521025540    2.19272809413961   -0.07941497438636
C         4.37996885505378    2.12054286621970   -1.40328994484725
C         4.35232485419646    0.49114437879197   -1.54581784886274
O         2.90793034437309    0.30243008461731   -1.35286127825426
C         3.03160629465276   -0.30885613620640   -0.03916187757948
C         3.96351805103846   -1.48657058806803   -0.41208486654395
C         4.68164675108951   -1.15706211872825   -1.75597225881565
C         4.00495278134054   -1.80752202723865   -2.95153797993633
N         3.46765895816452   -2.20656281598168   -4.02023902502689
C         6.11247574262362   -1.49483371111087   -1.83846522033524
C         6.94028846991349   -1.26254016679385   -2.92096066409157
N         6.58590316165158   -0.89658084154002   -4.16501269481972
N         8.24600771074575   -1.51315870905768   -2.68268577870507
C         8.47312978180436   -1.83884894721928   -1.43165739194783
S         7.07867592976595   -1.79418131064171   -0.43661018068723
H         3.05625927653212    2.05397815374617    2.52963279440682
H         2.47559534600151    0.39131099359891    2.63793921640159
H         1.62652170061178    1.61458350885327    1.57037383949070
H         4.54709138494169    0.68339190546175    1.08377741096891
H         3.89629768961386    2.95521611158148    0.60564297159352
H         2.46394576461588    2.40623132197167   -0.35356473968590
H         5.39187151898669    2.53519418159181   -1.31471520723104
H         3.96286836424473    2.56662088256466   -2.32051190716295
H         4.85803980714986    0.48128882399962   -0.55983075471339
H         2.03642329220458   -0.69544268833198    0.21818171632168
H         3.43857505493406   -2.43155378034150   -0.58405127137722
H         4.71009680056884   -1.66700347139481    0.37140205974517
H         5.59614066229788   -1.01945162414838   -4.36135367530798
H         7.21457644018600   -1.07746747710126   -4.94240060735118
H         9.49714176860894   -2.02776624196268   -1.13822756274665
