32
 energy: -49.230729000126 gnorm: 0.277470321768 xtb: 6.4.1 (79825abcba525fcdf90b791dcacef51065a7a4e7)
C         2.24482120545264    0.86727890061531    1.89291591311014
C         3.43039492643639    0.72365522679517    0.90245972371891
C         3.57129220176325    2.14180579467823    0.25907478437031
C         4.41469578776643    2.26020526665980   -1.07658142937951
C         4.49051794531530    0.65570458345163   -1.38617214206397
O         3.04565570539532    0.39077855852445   -1.42234039972189
C         3.07832647243647   -0.31621161952244   -0.15195848447938
C         4.04589473222417   -1.44569401818207   -0.57930329527145
C         4.79655856214522   -0.94433218188550   -1.85031002862668
C         4.00404687847274   -1.19320005636202   -3.12325159580150
N         3.25065944148855   -1.50103664088759   -4.08641520527387
C         6.21851175345482   -1.32311126169638   -1.90267292411762
C         6.91287008537514   -1.89201776177198   -2.95397806022831
N         6.45309842478448   -2.24212626549117   -4.16773861635871
N         8.23320739365868   -2.02863262877449   -2.70391190354161
C         8.59177284448702   -1.66205536017681   -1.49569730571445
S         7.30258318590544   -0.97084938710965   -0.60303834356448
H         2.35625687662363    1.67631560423853    2.62580044668040
H         2.05648276851512   -0.12389254940046    2.32515215583786
H         1.30767841649699    1.09257444517099    1.36546700953875
H         4.33444792852329    0.49662084675956    1.46752658931245
H         3.93722090974042    2.83065451472439    1.02661639836691
H         2.54352988091418    2.50590958230775    0.07854964571705
H         5.40465725872387    2.73012448796404   -1.02291192797013
H         3.75153320091516    2.76086779766670   -1.80032652497999
H         4.97485185542834    0.51310883800476   -0.39971260979484
H         2.05284124721225   -0.70852605966396   -0.12886019490728
H         3.45993342868679   -2.33757572803020   -0.82287504272199
H         4.70715215413848   -1.73309202182862    0.24769647871759
H         5.44171063767240   -2.22877052370183   -4.26869990915451
H         7.03324674694822   -2.86203519503355   -4.72579137138469
H         9.61611815669727   -1.64302845900112   -1.14821203121063
