32
 energy: -49.227703335629 gnorm: 0.281042631670 xtb: 6.4.1 (79825abcba525fcdf90b791dcacef51065a7a4e7)
C         2.58005356552502    1.45105337658242    1.80915594718426
C         3.58312137683867    0.94313887944331    0.74000016031693
C         3.77170363625429    2.12848506436045   -0.26216669560332
C         4.47754629046339    1.94446700977679   -1.66831358465422
C         4.31099390728393    0.31762594086475   -1.62749326159828
O         2.88023131153768    0.13695259584779   -1.34571966378680
C         3.07778570910133   -0.30277899974161    0.02627927298698
C         3.90566122782207   -1.55677515502822   -0.34339378278036
C         4.64652698343875   -1.34118355720668   -1.69799932131776
C         3.94082743307060   -1.91583227219361   -2.91543811380534
N         3.20157907225123   -2.16989612138552   -3.90488419621268
C         6.11117777204766   -1.48736993417120   -1.73792366393095
C         6.91076784887064   -0.98166088816675   -2.74586446824744
N         6.46304532112537   -0.37631079828957   -3.85954146028182
N         8.23206972652725   -1.16485767666989   -2.53352606743329
C         8.50520118028159   -1.85265471593376   -1.44952190134961
S         7.10622927424321   -2.22737863664104   -0.53351137522570
H         2.89497306330435    2.46152076580577    2.09874082434873
H         2.49830540261969    0.77370225283014    2.66894259038114
H         1.63676198555896    1.45363443492564    1.24578096690261
H         4.57915387451836    0.80926868029812    1.16208431630264
H         4.32140755051243    2.91207475419097    0.26825701540321
H         2.79512232568072    2.60460536028683   -0.46478626624372
H         5.54890627620170    2.17552471965431   -1.61803114277313
H         3.93474795122028    2.50063610040243   -2.44953087321584
H         4.81954834923334    0.34317923817758   -0.64325004768380
H         2.13578424202769   -0.66358664840130    0.46046261225246
H         3.20014025472195   -2.39040291116013   -0.41712127198477
H         4.68210661323283   -1.72126027438259    0.41414487985402
H         5.50015855119095   -0.54786491420381   -4.13648020381670
H         7.20457977688587   -0.26498628791391   -4.54511825496496
H         9.53761754939063   -2.02700069486459   -1.17728803557637
