32
 energy: -49.218185627967 gnorm: 0.285138505736 xtb: 6.4.1 (79825abcba525fcdf90b791dcacef51065a7a4e7)
C         2.25900143496453    1.02260076995012    1.83193329604849
C         3.43143446957015    0.88893388463066    0.82458518591430
C         3.60122409793352    2.22159806925943    0.02450712112869
C         4.60327987849467    2.15453758914515   -1.20052866163563
C         4.52493258652194    0.53953719450319   -1.44882942604096
O         3.05708667771143    0.47329113283310   -1.46150519876460
C         2.97969431911147   -0.17741756471839   -0.16329053417391
C         3.90051110681329   -1.38653234588365   -0.45428934192543
C         4.76673679415907   -1.11464987617964   -1.72159001266710
C         3.90213457171286   -1.67841905948160   -2.83739355510489
N         3.24634848266453   -2.28744049362616   -3.72569397674228
C         6.16964951474238   -1.54826918089746   -1.83102746182658
C         6.89422983095189   -1.59521113992168   -3.00738218094084
N         6.50305280228005   -1.35877295698739   -4.27160453541826
N         8.23701064534871   -1.63636544418441   -2.86690679921411
C         8.56054295514562   -1.58305148256937   -1.59599568411088
S         7.25579781759684   -1.52983796101277   -0.48630016480724
H         2.40236193131945    1.74809580877845    2.64260138665636
H         2.27920463852810    0.05479614049597    2.34929816716296
H         1.28488220796144    1.19532725685315    1.35396433519419
H         4.32923423083493    0.56134126603462    1.34879475169920
H         3.89302665091228    2.98998328225395    0.74698337817001
H         2.61014343404429    2.59610735272834   -0.29006909536637
H         5.54842923612151    2.37739880366945   -0.68988810530483
H         4.41482761985947    2.86270296395542   -2.02347585849860
H         5.01466695109825    0.46914079284538   -0.45725497408455
H         1.96565196387924   -0.56379599283350    0.00551086220525
H         3.23325746315097   -2.24949685415033   -0.54481924040720
H         4.60079924284666   -1.62644797870157    0.35554066543027
H         5.50875136520465   -1.28734435814290   -4.47044976089945
H         7.07841735759036   -1.75231647883944   -5.01076700817598
H         9.58972879337955   -1.58293356368989   -1.26257724325092
