32
 energy: -49.229344346954 gnorm: 0.285754555426 xtb: 6.4.1 (79825abcba525fcdf90b791dcacef51065a7a4e7)
C         2.42806660962250    1.05503388218734    1.91035244372332
C         3.49520216632594    0.71057895382018    0.83807040231640
C         3.78584632504185    2.08282548952251    0.14711984358643
C         4.58909284128540    2.14625665932026   -1.21673392039338
C         4.50245602017885    0.53284027243104   -1.47246713282392
O         3.03782679964920    0.49174880716525   -1.36159077463001
C         3.00706316226130   -0.32868397938505   -0.16129233550514
C         3.83236211717322   -1.55903537907151   -0.60812506084726
C         4.67953437311601   -1.11162792159314   -1.83793957340176
C         3.79506989836776   -1.43801233237230   -3.03024240194839
N         3.04268620112242   -1.85769224172595   -3.95101798770899
C         6.10579730934650   -1.47435504680009   -1.88661621173506
C         6.95210259443032   -1.63028259797376   -2.96850555381648
N         6.69438406345316   -1.77632794080323   -4.27977690110756
N         8.26954762050148   -1.63517720500301   -2.67050897956553
C         8.48601983752557   -1.50077661039588   -1.38295049494939
S         7.05992990564937   -1.28486198304991   -0.45760511312211
H         2.76770990528332    1.76539491362754    2.67462181561673
H         2.13716271708199    0.15352539614051    2.46476903292092
H         1.51362285531922    1.50603714764521    1.50098010745937
H         4.42144235994437    0.36838337855408    1.29973943541653
H         4.30548564398828    2.74095287317228    0.85024133634562
H         2.82934146827861    2.60364930644297   -0.04075589709713
H         5.64674739770268    2.41130059588464   -1.09488664628568
H         4.11274775484633    2.83589869157466   -1.93209660526507
H         5.07785145251129    0.27696466778903   -0.56062116562525
H         1.94239512993692   -0.59310243934075   -0.11001897476824
H         3.21867200364785   -2.39520073806292   -0.95790037227143
H         4.45884747631911   -1.91473364518918    0.21939077468324
H         5.73790776030500   -1.73596620941063   -4.62153825564203
H         7.47406575712488   -2.01098612222034   -4.88748902618093
H         9.48988089698094   -1.52663941700149   -0.98047633839677
