32
 energy: -49.230434560267 gnorm: 0.279214219858 xtb: 6.4.1 (79825abcba525fcdf90b791dcacef51065a7a4e7)
C         2.51723026912428    1.05912207494667    2.01074733705493
C         3.40057220661331    0.90813192082515    0.74420666839204
C         3.43289413410114    2.23658635613169   -0.07987546580994
C         4.30029438746032    2.25964861890935   -1.40517184948610
C         4.39076665485564    0.62651887556574   -1.43200212493160
O         2.94682458087007    0.35421212468400   -1.43307393365824
C         3.02241289158260   -0.28126541749866   -0.12723037383573
C         4.04096103998242   -1.39489316917496   -0.46918843596424
C         4.79882600677015   -0.98282572800107   -1.76771033411940
C         4.02280641334266   -1.39644288324210   -3.00751059375188
N         3.17586526928615   -1.61005538376330   -3.91696127521948
C         6.21733216244615   -1.37029399864999   -1.84435876970720
C         6.99811732338729   -1.61503217930700   -2.95858870851024
N         6.62339093504848   -1.34883476997151   -4.22187795271585
N         8.28266513263554   -1.92659888255712   -2.68046925352298
C         8.53417268138767   -2.06096732940587   -1.39929023990772
S         7.17894202193813   -1.64849629836740   -0.43501164756266
H         2.94248567703459    1.72188335821381    2.77493537388275
H         2.51136369663254    0.02696268370476    2.38402063430240
H         1.48150203379704    1.36448535953157    1.80772684077149
H         4.37605015543273    0.71854920421519    1.19215551559204
H         3.85655370897707    3.00027506189097    0.57953990754047
H         2.39176213174315    2.45701859780455   -0.37805337237062
H         5.25470449253649    2.78530917474065   -1.27667852187466
H         3.73753191500138    2.67968166112880   -2.25436275366867
H         4.93690959307395    0.56425683701612   -0.46978249390160
H         2.10613130759232   -0.79106486971218    0.19926109105778
H         3.53251275027474   -2.32831465014241   -0.73059905080688
H         4.73921736242260   -1.71106892415133    0.31583297803279
H         5.63704788795378   -1.47631886409429   -4.43200176309889
H         7.25413390734389   -1.63050873989900   -4.96693171810984
H         9.46889001763077   -2.28612792165152   -0.90330882247788
