32
 energy: -49.231465885602 gnorm: 0.283397619701 xtb: 6.4.1 (79825abcba525fcdf90b791dcacef51065a7a4e7)
C         2.40318888875490    0.75179434998923    1.98825424283687
C         3.46480108294983    0.56165069429718    0.87288828948174
C         3.81838091454774    2.00338285478826    0.38162773052326
C         4.60215671783419    2.21536495726098   -0.97855043747065
C         4.46856468032623    0.64521994917187   -1.41765825658327
O         3.00139385100493    0.56463549406560   -1.41159782076591
C         2.95813125681589   -0.32105226854067   -0.25901019492625
C         3.79840995975812   -1.49564425047716   -0.81471496348997
C         4.70663057592478   -0.94339172950156   -1.95509667774443
C         4.02005671497377   -1.13904042018082   -3.29700880088816
N         3.37449181823265   -1.13443606458151   -4.38018233081457
C         6.14179055287703   -1.27269811640366   -1.96138039692673
C         6.90538252771050   -2.06552566584425   -2.79767122703217
N         6.41713254452627   -2.79586845055180   -3.81521336317201
N         8.22853502642541   -2.12336674745637   -2.53232394778804
C         8.47090614036088   -1.40373136323362   -1.46175785937371
S         7.15777184416096   -0.55405469748642   -0.76151248744585
H         2.71605458435979    1.43884654177067    2.78459109273077
H         2.08992184372409   -0.16180109526783    2.50972092462840
H         1.48196822665195    1.11097937558114    1.50915545936286
H         4.28124501343331    0.20743871500159    1.50226114029051
H         4.49216645934102    2.38323286727249    1.15574885594360
H         2.86370959549137    2.55882286849846    0.34231683186240
H         5.64020281370840    2.50882540183947   -0.77837682216207
H         4.08464275956348    2.87378850107313   -1.69472938829953
H         4.88916355538227    0.24895720091019   -0.47209614051553
H         1.94685462426378   -0.65454925192091    0.00962232824712
H         3.17616796734016   -2.29707189571236   -1.22539666479681
H         4.47511729397886   -1.88794928686498   -0.04533107769186
H         5.46410493981114   -2.77219485749575   -4.16799481603976
H         7.06862517051773   -3.29921423616655   -4.41059761769777
H         9.47829580970859   -1.33033144055999   -1.07424029270679
