32
 energy: -49.230821324933 gnorm: 0.274713632884 xtb: 6.4.1 (79825abcba525fcdf90b791dcacef51065a7a4e7)
C         2.45755118716846    1.24312347650453    1.92629873415020
C         3.48020326491164    0.90499414662732    0.80957694560853
C         3.52368106367749    2.17953536997848   -0.09518910457165
C         4.24351886038212    2.12422118144091   -1.50518891117219
C         4.38958889974130    0.49495651122375   -1.51853204275280
O         2.95229571404445    0.27776591542021   -1.30373591716530
C         3.07959191656206   -0.32814241540861    0.01210733751134
C         4.06174369425709   -1.47404863120732   -0.32968095457069
C         4.71224028290534   -1.15679003276650   -1.71044854826358
C         3.95828860252158   -1.59929907427317   -2.95388444727594
N         3.51737579196579   -2.10313252653506   -4.02242919497320
C         6.16828273783499   -1.34962782127615   -1.81494882001760
C         6.93891245828987   -1.34020595036784   -2.96258624165740
N         6.56293089094367   -0.89826620782615   -4.17523118460533
N         8.24641352546865   -1.58944309979356   -2.73278390310721
C         8.50131950496476   -1.88742980856560   -1.48020358480215
S         7.11849466546159   -1.87090672502325   -0.46820647649148
H         2.70686800752705    2.24796834903151    2.28990008367159
H         2.47137900968364    0.54201794761316    2.77068028762316
H         1.45574827459988    1.12696846886748    1.49029876451895
H         4.45348288529064    0.72204203094655    1.26500235834127
H         3.99797947951231    3.00219892956162    0.44868789285836
H         2.43592332577366    2.33132278577262   -0.21847725087276
H         5.21843655560758    2.62709522180616   -1.48565960569519
H         3.65338929875951    2.52364935045957   -2.34569993852409
H         5.03922119543023    0.58417910322121   -0.62520539389173
H         2.16528902830315   -0.81952183270349    0.37080023318224
H         3.56941268012451   -2.44858770564987   -0.40723474050884
H         4.86402164310400   -1.55912933465236    0.41389082038630
H         5.57950664985926   -1.02056216657496   -4.40149933318473
H         7.27305351275904   -0.97658768580900   -4.89763940936274
H         9.43337745463659   -2.19965961336754   -1.02834975344477
