32
 energy: -49.234500281399 gnorm: 0.281122394958 xtb: 6.4.1 (79825abcba525fcdf90b791dcacef51065a7a4e7)
C         2.55315471942449    1.31034841462576    1.86191540585249
C         3.53059149999741    1.03370140007160    0.68918353548633
C         3.51866542581057    2.24907931341879   -0.29451436132257
C         4.27120276788757    2.10365691520853   -1.68082797751760
C         4.31664892402959    0.47069546585856   -1.59486642595025
O         2.88021042075410    0.25349689148608   -1.37443496865435
C         3.06469127473700   -0.23218560901489   -0.01618166979940
C         4.04119696962758   -1.40035576100306   -0.29251034356171
C         4.73184759469805   -1.16973790857696   -1.67096422918722
C         3.96879102330340   -1.88409686881983   -2.77451585188369
N         3.35644056006559   -2.57663958773494   -3.63210061874596
C         6.15825265616757   -1.49932954095194   -1.82877522300025
C         7.03091684725832   -1.05363986139853   -2.80388984325417
N         6.61880318196100   -0.22262339412364   -3.77690300008499
N         8.33399041876401   -1.38187042366521   -2.66695452940166
C         8.48220024054548   -2.04647335240160   -1.54487280742584
S         7.06506012953145   -2.35706672212666   -0.63280846636350
H         2.74642701009621    2.27523388178155    2.34742533698016
H         2.71405027257183    0.50703506044440    2.59234038878010
H         1.49595971355872    1.27613444494664    1.56465262849780
H         4.53516731175285    0.97584550440273    1.10827438149781
H         3.94692371217242    3.05459787351810    0.30986234045342
H         2.45733528284815    2.46975882509832   -0.50977040304179
H         5.22428988568186    2.64141827684470   -1.75935098079678
H         3.71073066616332    2.53156441126614   -2.52759875021360
H         4.92256308019081    0.60405314348840   -0.67666216864523
H         2.14473594995996   -0.63752459714232    0.42591176278366
H         3.50847051146859   -2.35242802016844   -0.20367477192185
H         4.84903847142479   -1.44744137417098    0.44840981141507
H         5.66021505009664   -0.22843215847929   -4.11506252959553
H         7.28954480527835   -0.17351158652191   -4.53846438613873
H         9.42941625884188   -2.46466505539623   -1.23136224313870
