32
 energy: -49.229633821770 gnorm: 0.273561347745 xtb: 6.4.1 (79825abcba525fcdf90b791dcacef51065a7a4e7)
C         2.76241290246063    1.11154455489433    2.03628329715940
C         3.66071189099349    0.80606489781345    0.80870137506114
C         3.75401846951420    2.11201015736032   -0.04613668981148
C         4.40678574136837    2.14309612371621   -1.48913846451895
C         4.32412860309667    0.51354344146122   -1.60637199183881
O         2.89074958163008    0.28901196293102   -1.37371124829004
C         3.06539178881031   -0.29738822776173   -0.05446615510875
C         3.84900550849194   -1.54826509740497   -0.51900786940465
C         4.63746153496552   -1.13975829466116   -1.80032643527222
C         3.95780705603089   -1.50268350527346   -3.11057271716549
N         3.35349722935812   -1.61320325700243   -4.21176986434309
C         6.06157154929388   -1.51102153403823   -1.84766163743429
C         6.94257493040978   -1.61325578721088   -2.90804448539266
N         6.64794772301109   -1.50659736831756   -4.21533153150873
N         8.24194181393526   -1.75477415336661   -2.56730182267325
C         8.41372082912593   -1.51464327783279   -1.28841178666849
S         6.96620471065201   -1.39250646235769   -0.37934887286685
H         3.24293107533026    1.89354026755039    2.63766755626798
H         2.68370341299647    0.21502902504737    2.66460256339288
H         1.75295296575296    1.46480221288741    1.78449628808232
H         4.58576780109646    0.45093011654951    1.26291261788750
H         4.17085347679922    2.85133797577772    0.64464508606013
H         2.68538096544899    2.31377120225343   -0.24301901367751
H         5.43107920697493    2.53157195025414   -1.54945124626966
H         3.69108292192348    2.67401666837783   -2.13732624348618
H         4.92229627782037    0.38436776441519   -0.68250816191471
H         2.08120000102301   -0.57890035377394    0.34325428028560
H         3.05003159289791   -2.22623866120134   -0.83543061900351
H         4.48469741803746   -2.08669681108760    0.19497721472294
H         5.67343842859636   -1.64166741922323   -4.47099641102518
H         7.33117008622123   -1.95155784780188   -4.82154882792735
H         9.32640603773041   -1.74049767105069   -0.75326053585288
