32
 energy: -49.228714482754 gnorm: 0.275662062728 xtb: 6.4.1 (79825abcba525fcdf90b791dcacef51065a7a4e7)
C         2.47917332393732    0.75821594913762    2.03151774411861
C         3.47290554369762    0.67562907499720    0.84286642682554
C         3.58470948782035    2.10927719595840    0.22878157901648
C         4.36018078067338    2.30733342452047   -1.13823838289353
C         4.39538656614826    0.69425255346794   -1.40795770023539
O         2.95751720800912    0.39204394027050   -1.38999966471619
C         3.05728201949342   -0.38615472884061   -0.16557060774527
C         4.00286266377925   -1.47024644701165   -0.73580284668983
C         4.76551209405166   -0.86596012652349   -1.95380197903797
C         4.02140474590532   -1.13288718803518   -3.25204865064449
N         3.40162255576524   -1.41148851007109   -4.31425930370747
C         6.20774653752232   -1.16083104781016   -1.91949021943793
C         6.86887531915787   -1.93909277397800   -2.85128848822785
N         6.40882837689582   -2.41967494103580   -4.01944011547273
N         8.16947560328110   -2.15058811313162   -2.55431048057132
C         8.48643401605563   -1.68213419330593   -1.36990392782850
S         7.25840788772282   -0.76324182167287   -0.60557132028896
H         2.70391951110128    1.58992090559882    2.71110147918706
H         2.51992595263703   -0.24039468740831    2.48520970972167
H         1.43909067291798    0.90764700169773    1.71043290391980
H         4.43237940443187    0.46096462669309    1.31348951277670
H         4.09354578860773    2.74315640193671    0.96146109991307
H         2.57413285256516    2.53633996634510    0.09533294570270
H         5.38681174645935    2.66922100273546   -1.00114553797729
H         3.69710994966488    2.88979895438195   -1.79803041670195
H         4.95751905540808    0.42487703952781   -0.49173764437920
H         2.11271763791463   -0.89371822265160    0.07158235506484
H         3.25618142744544   -2.18797501697871   -1.09001134684044
H         4.58851046216180   -1.92121149818697    0.07502068184070
H         5.42943476432989   -2.45451373942152   -4.28934976549048
H         7.11955145903183   -2.88634425840496   -4.57565453846918
H         9.51500494028699   -1.70881688372888   -1.03565664375169
