32
 energy: -49.230393378784 gnorm: 0.287249105998 xtb: 6.4.1 (79825abcba525fcdf90b791dcacef51065a7a4e7)
C         2.57882735605691    1.24979619234926    1.96845790018307
C         3.52065231517287    0.80111915404002    0.82003684117654
C         3.71118874103089    2.11935461292807    0.00095296290439
C         4.37284001597935    2.07346340179874   -1.43760087935638
C         4.36606640691523    0.43989602613999   -1.52379616146800
O         2.91826658487371    0.32346063082014   -1.30144665242372
C         3.05239893876500   -0.37100005601700   -0.03081469666947
C         3.86067132600664   -1.59408453341506   -0.52609493718402
C         4.67857769339386   -1.20278207038103   -1.79425484357472
C         3.95623676287003   -1.50396979295881   -3.09728968323641
N         3.14476347613863   -1.64606123751592   -4.05194212079465
C         6.12980441952291   -1.44269818681077   -1.86169086957576
C         6.97807253560555   -1.56927059581374   -2.94587315323913
N         6.72775196735013   -1.66190776818397   -4.26342338004146
N         8.28936802258527   -1.64007914021139   -2.62968078753669
C         8.48097141415383   -1.56899565555577   -1.33316010830120
S         7.05139943593948   -1.42485355968298   -0.39926358718547
H         3.09765336159970    2.05261139711638    2.50733205880721
H         2.39055197699185    0.41326711612623    2.65365266462625
H         1.58714978640135    1.60894703086657    1.66058892293430
H         4.44131707780827    0.47543250731343    1.30424919730344
H         4.31007035010455    2.77296186256670    0.64257192306966
H         2.70182591301860    2.53989333102301   -0.15964015964677
H         5.38105957088738    2.49882193455353   -1.51692084750415
H         3.69975807044321    2.54143806467213   -2.17395335159243
H         4.97522515475201    0.37484988023025   -0.60037322827386
H         2.04733987227651   -0.70187747431882    0.26319296332272
H         3.19409747196505   -2.41939328047730   -0.79567905453891
H         4.55922718854674   -1.87113391553872    0.27331169709735
H         5.77569417914788   -1.51213856995776   -4.58658273466805
H         7.43854405914784   -1.62618210399963   -4.98853048208785
H         9.45412347061090   -1.82930876912176   -0.93869399189139
