32
 energy: -49.229185162456 gnorm: 0.280204772575 xtb: 6.4.1 (79825abcba525fcdf90b791dcacef51065a7a4e7)
C         2.76827131371949    1.13770099747880    2.05541335046708
C         3.51485206329447    0.82741116360894    0.73119521380533
C         3.69192041271613    2.16254754755653   -0.06316295051056
C         4.33944020627817    2.19525221059276   -1.50849131947167
C         4.29089134693204    0.56223400145753   -1.59163207717501
O         2.84934890343408    0.31972676394807   -1.44241262688495
C         2.89069256852286   -0.27312330357273   -0.11516276362189
C         3.84017669061060   -1.43714468449375   -0.48674928078014
C         4.67412157475654   -1.07966364971985   -1.75444847187382
C         3.98826303805325   -1.69045227899020   -2.96561549841816
N         3.55041700785243   -2.20357611244817   -4.03099567933416
C         6.10915711590024   -1.40651810749867   -1.79923147267619
C         6.90734029995289   -1.44168825219396   -2.92737032274362
N         6.61568999041203   -1.15705351508178   -4.20842605943216
N         8.21732815748123   -1.62323061252744   -2.65266774812170
C         8.45242026552338   -1.75388618069429   -1.36799214061643
S         7.05434543135378   -1.68709183118405   -0.37928542457006
H         3.24853339685267    2.02184111391785    2.49327476974802
H         2.75544167966886    0.31749947635362    2.78467684496827
H         1.73642057909167    1.46399785010910    1.86564649242042
H         4.48592036766284    0.53530234186069    1.13101490947709
H         4.30799828441455    2.79637593077343    0.58200845776219
H         2.72854594022438    2.70395580879653   -0.07875152753894
H         5.37693541895922    2.54670789897351   -1.57022290347469
H         3.77640159053350    2.74640075193980   -2.27886613023658
H         4.80715703434056    0.51899650732955   -0.61203238568319
H         1.89532577707864   -0.61621403365722    0.19724370046731
H         3.20243230287472   -2.27626353760982   -0.78220228705389
H         4.50147440326157   -1.80667407426118    0.30692633664475
H         5.62578441252086   -1.16202740915408   -4.43937848470925
H         7.35951254009513   -1.34662286840603   -4.87406373166330
H         9.37886661587596   -1.99911679733206   -0.86604546706565
