32
 energy: -49.230205786642 gnorm: 0.279786105430 xtb: 6.4.1 (79825abcba525fcdf90b791dcacef51065a7a4e7)
C         2.14698534815072    1.20369813078548    1.72919344768935
C         3.36974522654730    0.90024056049694    0.82366152975038
C         3.60589424920631    2.22525171795433    0.02771785784021
C         4.41185995408796    2.24683019688423   -1.33583603618482
C         4.38966309749230    0.61664551627223   -1.47008601093516
O         2.94934700978312    0.36044349143382   -1.33235106595639
C         3.12717518741737   -0.31682314501533   -0.05780811122279
C         4.18084121171801   -1.41235938841360   -0.34786098210676
C         4.81108137416089   -1.00565827844834   -1.71450268797351
C         4.00662763814609   -1.53994168418526   -2.88829384258732
N         3.33984180222184   -2.00895930973476   -3.85030177322903
C         6.21730914578721   -1.42372678764615   -1.84063174153581
C         6.94773594012177   -1.53297986506485   -3.00920825474770
N         6.47023190055917   -1.24848657838468   -4.23323198943450
N         8.23013298277380   -1.91731364808207   -2.82967361832150
C         8.53278405149279   -1.90934598454566   -1.55254032764106
S         7.23341948429521   -1.66312493322077   -0.46275015795115
H         2.40238098684134    2.01485256755219    2.42264826528957
H         1.91637409084714    0.34385924915775    2.37123388675191
H         1.29904955321478    1.42599038784283    1.06678264195770
H         4.25276783632396    0.73685893605981    1.44150820963353
H         4.03631366021921    2.88176429689412    0.79012645769081
H         2.57718014289182    2.58412067379481   -0.15779937382828
H         5.47400763734564    2.48940864748749   -1.20650620638016
H         3.88947974586631    2.69929538321135   -2.19411846206986
H         4.99722719977950    0.57247723639111   -0.54438070162814
H         2.17024269987073   -0.72992475567352    0.28815629896732
H         3.81460165359984   -2.44235588987721   -0.40359806513589
H         4.93968047198680   -1.39195244412436    0.44430955355861
H         5.47031681934202   -1.23815384297875   -4.41582410043073
H         6.98339413476459   -1.65991207154754   -5.00761924531390
H         9.48891961648621   -2.27683951300091   -1.20448193013486
