32
 energy: -49.221609083508 gnorm: 0.291124400365 xtb: 6.4.1 (79825abcba525fcdf90b791dcacef51065a7a4e7)
C         2.13921994987093    1.05028455479430    1.77281445383047
C         3.37627865365037    0.77115033804101    0.87895421712790
C         3.82116820657068    2.11117937176790    0.20713375841627
C         4.22168766255323    2.20847117489695   -1.32239036361270
C         4.44767307052190    0.59323780033774   -1.44876124488560
O         3.00920667120434    0.34260577050960   -1.28408326524083
C         3.03053488486797   -0.39782644218036   -0.03265290495372
C         4.10107244765052   -1.45747521656024   -0.38710489220661
C         4.81100842368233   -1.04031721278965   -1.71084508710726
C         3.99735528847943   -1.42489028509916   -2.93577871245608
N         3.25990285428745   -1.88913828799118   -3.84719401244406
C         6.23439307770964   -1.35819958152522   -1.91355988660379
C         6.94406115653620   -1.61260561960767   -3.07230031261439
N         6.55687857779126   -1.49676664966302   -4.35442808016213
N         8.23514709052124   -1.91876016277875   -2.81960717731901
C         8.53842999003666   -1.74809627565269   -1.55405436791673
S         7.23353276979970   -1.38820218535249   -0.50318083283618
H         2.32415128907052    1.85354670739429    2.49714058906660
H         1.88300190945864    0.07008796066350    2.19505530021771
H         1.28706214293733    1.46565939797724    1.21739763128081
H         4.19658441109889    0.46924219542827    1.53018915290215
H         4.58658435849959    2.51570667522935    0.87648589540498
H         2.95438530531936    2.79659552351756    0.18846869931554
H         5.18614864361607    2.73127397815738   -1.33723799520675
H         3.46463781129378    2.63550563271357   -1.99971719983359
H         4.98406298529422    0.50413299873323   -0.48317256987486
H         2.00110100177142   -0.69906926559037    0.20310700875652
H         3.61189086026230   -2.42668520800985   -0.52661903187423
H         4.84730676444357   -1.60654615565719    0.40327464917060
H         5.59461864910283   -1.36031943845870   -4.65227837316477
H         7.20503873268303   -1.81042318076655   -5.07121956077034
H         9.55866394244087   -1.73510531745622   -1.19440832431079
