32
 energy: -49.229585276711 gnorm: 0.274683611113 xtb: 6.4.1 (79825abcba525fcdf90b791dcacef51065a7a4e7)
C         2.45507203943663    1.00617059571908    1.97645850296695
C         3.50369580983932    0.84015060177841    0.84506917081129
C         3.71423545765083    2.18264105942533    0.07154497259947
C         4.12379837594470    2.27384143298287   -1.45595831027307
C         4.33409509060197    0.65462306156583   -1.55558261340708
O         2.90763196857522    0.34093244346184   -1.39457953892313
C         3.06974941949263   -0.28012538274488   -0.08967425110267
C         4.08370972652313   -1.38813397308002   -0.46215764328525
C         4.75122088975239   -0.96775331624225   -1.80678657174158
C         3.96896542718868   -1.43174525953353   -3.02464456935775
N         3.45693350880493   -1.62742087349561   -4.16023891050927
C         6.16293985276656   -1.38328723703149   -1.85725910595175
C         6.96392228901106   -1.56362769081739   -2.96943492325794
N         6.60993867836506   -1.48472203943323   -4.26390397868285
N         8.22107613747844   -1.93923592808148   -2.64854558449337
C         8.46680983630027   -1.99157950858997   -1.36028874303008
S         7.10918414973603   -1.53672305508149   -0.41870826443405
H         2.80665329869172    1.68580258735060    2.76295008616521
H         2.23286884779281    0.03011637859394    2.42664100650993
H         1.55003001895738    1.44864466280064    1.53792381043726
H         4.44190255224272    0.57660347483866    1.33340105111720
H         4.37424449380304    2.73700458062710    0.74578948879081
H         2.77174305165339    2.74726790109096    0.19138185350351
H         5.03103448534786    2.87024963391186   -1.61390799339502
H         3.25962972751480    2.45300119189671   -2.11578319653865
H         5.00395367087680    0.62540487652194   -0.67328386971676
H         2.14850428558048   -0.76403754306813    0.26132507061480
H         3.52423014090769   -2.32193031297534   -0.57677797277062
H         4.90670491212740   -1.52141976311370    0.25107545147503
H         5.62621918731702   -1.51470605959510   -4.51821429147469
H         7.34130794058356   -1.94611757373422   -4.79728489576306
H         9.43701344192626   -2.16141544052372   -0.91279340520965
