32
 energy: -49.230543783562 gnorm: 0.286069260465 xtb: 6.4.1 (79825abcba525fcdf90b791dcacef51065a7a4e7)
C         2.23589954888951    1.28774376423115    1.76502409675198
C         3.41938027611099    0.95462005775460    0.81865300943297
C         3.53198460056361    2.21209163253033   -0.10386135953403
C         4.35234069566633    2.15046959147808   -1.45757631156476
C         4.37958930531506    0.51490124313630   -1.44373658823581
O         2.94085022066231    0.24020918246210   -1.32671119818559
C         3.07834002332554   -0.29463852553872    0.01857954474499
C         4.08906975362479   -1.43918914546100   -0.23236208369107
C         4.81829469814761   -1.11615061123474   -1.57183775428548
C         4.02375828498183   -1.51364598063757   -2.80516641604353
N         3.28564503928526   -1.81595362598063   -3.78181327039045
C         6.19934222022729   -1.57160147853405   -1.80300565637023
C         6.92156099162189   -1.37183305203166   -2.96469546711659
N         6.54553814541985   -0.88605627918882   -4.16044141898180
N         8.23816810210656   -1.65438931637076   -2.85888909551863
C         8.59338975134415   -2.01681499100561   -1.64843636979171
S         7.29022739087172   -2.00987179935593   -0.53563119815612
H         2.42711960897959    2.20516880681134    2.33585175562154
H         2.01388386127254    0.45735175505762    2.44757704341452
H         1.44282714660483    1.54868106482347    1.05077979299637
H         4.32183455302259    0.86637720974981    1.42358811394806
H         3.79702208664297    3.07720848446238    0.51165831655112
H         2.49440350829265    2.44517915989251   -0.40477989521406
H         5.34106642312379    2.60547025865161   -1.31928664247647
H         3.88464971635697    2.61356575467379   -2.34135322706961
H         4.85862212003535    0.54405126921424   -0.44489068835884
H         2.10594395043791   -0.69894971299602    0.33009589769109
H         3.56673526712202   -2.40038407159389   -0.26980301007654
H         4.77741673952709   -1.49869765925076    0.61994348412259
H         5.61880492111606   -1.22244105011826   -4.40800481429183
H         7.25452972798199   -1.02318780451144   -4.87514969414991
H         9.59816218040724   -2.34670440508065   -1.42040852505849
