32
 energy: -49.228800238344 gnorm: 0.286005766519 xtb: 6.4.1 (79825abcba525fcdf90b791dcacef51065a7a4e7)
C         2.18860185349910    1.19198196290072    1.75021734155316
C         3.36791452336824    0.94664151267179    0.77233904556631
C         3.57658797086571    2.24779124425100   -0.06933311416067
C         4.15520872320854    2.19554181576297   -1.54303375969603
C         4.37823737586391    0.57787692579707   -1.44589272910802
O         2.94099824999755    0.30504598359415   -1.30795143194908
C         3.02991644211275   -0.32157470073721    0.00132805501712
C         4.12369036219492   -1.36485310161612   -0.32998932233021
C         4.85518840594271   -1.03249537675749   -1.66594103006051
C         4.01213751171771   -1.65220041623112   -2.76849311405621
N         3.30958947759247   -2.22026575298530   -3.64813404952875
C         6.28185754152768   -1.37805564051642   -1.78156819839129
C         7.01876719531621   -1.35093622654100   -2.95086684098522
N         6.59189869457519   -0.69408046894710   -4.04334313321863
N         8.30882973611535   -1.74389650109964   -2.87465538736768
C         8.56305914195582   -2.14298555679207   -1.65038992146464
S         7.27594063915615   -2.02704545099503   -0.52500129974680
H         2.42156876397274    2.13553233376976    2.25964560249395
H         2.06233789867235    0.40851053378629    2.50847212262766
H         1.28447822474188    1.32231711694330    1.13966820592061
H         4.25121259954865    0.72185859625370    1.37018029001578
H         4.17132636136028    3.00063888810943    0.45701580111602
H         2.55649489797148    2.66997883229211   -0.12055856314263
H         5.10423215095433    2.73838137706053   -1.63472864071792
H         3.46012986550554    2.52917490051652   -2.33031318547358
H         5.03699828552739    0.63705108322650   -0.55676519421522
H         2.14654047273372   -0.80181236416544    0.44300982011679
H         3.68277461497201   -2.35308735728669   -0.49466231532758
H         4.87967132294907   -1.45490042105814    0.46005617752472
H         5.59520587607378   -0.64132229699129   -4.23594847682715
H         7.16197034130879   -0.79656959623945   -4.87808640835537
H         9.58398969637224   -2.37043865050479   -1.37406175872898
