32
 energy: -49.229776132888 gnorm: 0.277287123244 xtb: 6.4.1 (79825abcba525fcdf90b791dcacef51065a7a4e7)
C         2.16636089545966    0.83570910752715    1.83280391687749
C         3.36924681326651    0.77009090928756    0.85506366948061
C         3.68535888427466    2.18106382403050    0.25993692115817
C         4.57621052389235    2.24469122658242   -1.04836750578953
C         4.52572727012847    0.65177728250066   -1.41727732664376
O         3.06149147205737    0.52891377513888   -1.42351543416874
C         2.97201169594841   -0.25241412226584   -0.20028496259129
C         3.98977074302726   -1.36082797267669   -0.56101709452595
C         4.78961136601206   -0.96715456168219   -1.83992061942240
C         4.00832082904948   -1.31134765775581   -3.09750021642625
N         3.16505896587188   -1.57116991298911   -3.99830095127826
C         6.19363243461845   -1.41042967740792   -1.85987978602852
C         6.88160248196855   -1.94012859868395   -2.93558739864408
N         6.37995953830367   -2.50438897027697   -4.04785770221062
N         8.21673197794231   -1.99071809687227   -2.73720078374061
C         8.59411354532390   -1.55573022057991   -1.55775205980512
S         7.30210031177434   -0.92468450020088   -0.62549737384615
H         2.37359604185925    1.39266072099865    2.75526612778008
H         1.89449251468455   -0.17044514749186    2.17698639501959
H         1.35230360080422    1.23840596627375    1.21446501594567
H         4.21538740479236    0.45297937547009    1.46468927415491
H         4.23059583874620    2.77682283163488    0.99839773668452
H         2.69936533462084    2.64716846977113    0.08099709604384
H         5.61513667341727    2.55475548391719   -0.88037697814681
H         4.19751752021735    2.94053442911186   -1.81429726184321
H         4.97948712946921    0.40543697519099   -0.43675005040646
H         1.96470554091486   -0.67665285834216   -0.09342101920325
H         3.41789504606561   -2.28635127448505   -0.68141490927086
H         4.68553183279178   -1.73072034512404    0.20245114924175
H         5.39398715344242   -2.40991539806258   -4.27635280925051
H         7.04425960523046   -2.62853464282344   -4.80652449978309
H         9.61081154029047   -1.46814929349607   -1.19852215245699
