32
 energy: -49.226523752130 gnorm: 0.284453108059 xtb: 6.4.1 (79825abcba525fcdf90b791dcacef51065a7a4e7)
C         2.11027965378435    1.06472635868879    1.79983317582967
C         3.31383249686400    0.85689370821426    0.84302472379127
C         3.60482782692274    2.19157542807749    0.08217409384489
C         4.62161181232547    2.23972957505721   -1.13156272940791
C         4.50470506142984    0.63114217062990   -1.40505353868942
O         3.05200584822837    0.41056154037734   -1.41645556579875
C         2.97062634586639   -0.26237470681006   -0.12986826428649
C         4.01859821800988   -1.36836496890617   -0.40020676950520
C         4.83286440452559   -1.00777479583728   -1.67976266968509
C         4.03151410088257   -1.44989367407435   -2.89333543122727
N         3.30808104711469   -1.77924237899427   -3.87221959021078
C         6.21461798922659   -1.46835184117328   -1.89607766674017
C         6.94774953884436   -1.63141054471731   -3.05666397964389
N         6.43055713536475   -1.55878711124104   -4.29538045044217
N         8.27142780438399   -1.81618705356417   -2.86116255949311
C         8.56810467447760   -1.84955266570954   -1.58303887084842
S         7.26187030976831   -1.52637517216211   -0.52194331013697
H         2.21847380058072    2.02436953136104    2.32084857301737
H         2.04670388647076    0.17570922804071    2.44040092623631
H         1.19297999462858    1.11298562989101    1.19698210519378
H         4.15354701471014    0.56725019940579    1.47480250934477
H         3.94897332358537    3.01003598547376    0.72187926180283
H         2.61055454152404    2.50274140261166   -0.28667906609162
H         5.56791601670444    2.49243649413580   -0.63721895111819
H         4.28536665340883    2.87591435076003   -1.96610611968833
H         4.93497067460809    0.49547602237989   -0.39288680575433
H         1.95828314213950   -0.66190486268659    0.01710448721907
H         3.67364550703879   -2.40710998211709   -0.41234141953052
H         4.71166490310934   -1.42079809972114    0.44873195581935
H         5.42546830502481   -1.68803730637930   -4.37517798696153
H         6.89552136706194   -2.14706651953470   -4.98095877494176
H         9.57985594441682   -1.97438189449783   -1.22086710208031
