32
 energy: -49.228301317097 gnorm: 0.286843708053 xtb: 6.4.1 (79825abcba525fcdf90b791dcacef51065a7a4e7)
C         2.36071016352661    1.38535324591804    1.91555101236374
C         3.33858998424746    0.96795545795147    0.78561897379657
C         3.53466279476556    2.25372119296991   -0.08231488487741
C         4.29459740176110    2.15813893065502   -1.46892549801272
C         4.33829711514861    0.52292555540225   -1.48254196192057
O         2.88613041250156    0.31671387337555   -1.39417094634550
C         3.00206880566288   -0.25172201507402   -0.06067492843123
C         3.99443852349818   -1.40876223673240   -0.32713820960194
C         4.76847245675398   -1.10720538716148   -1.64632467675230
C         4.09746845581984   -1.76982209042497   -2.83841653156949
N         3.63771487414269   -2.37156091496972   -3.84667105250276
C         6.20597106710026   -1.39295949843630   -1.78812983635364
C         6.91822390665368   -1.30312878902138   -2.96950909167932
N         6.61236037520391   -0.71089008638816   -4.13693423227345
N         8.19510795838868   -1.71614241954246   -2.81629622431118
C         8.48265061390085   -2.16191974001112   -1.61574118800947
S         7.18326380127260   -2.02013025607188   -0.50754204044610
H         2.93658177671868    2.12223454151606    2.48953348413380
H         2.35272016489164    0.49949381673173    2.56355534206556
H         1.41691597884291    1.83943725324170    1.58350088696226
H         4.25774071709006    0.81246363336806    1.35054483278835
H         4.03208775776496    2.98252905462015    0.56494396226980
H         2.50238297477053    2.58201251588267   -0.30158518250009
H         5.32364266877746    2.52587896851040   -1.37114353756207
H         3.75083635186875    2.59085060092227   -2.32410915017220
H         4.95918083492349    0.52096252060479   -0.56465588693088
H         2.00947645293006   -0.60745564123946    0.24637247088722
H         3.43322554866220   -2.34618024836647   -0.39360848240229
H         4.71730134426630   -1.60525051188727    0.47451590585132
H         5.69002693819221   -0.37929049242493   -4.40641438304458
H         7.32855367150681   -0.83581294629549   -4.84668311623034
H         9.47383939207583   -2.49466254650905   -1.33785921752829
