32
 energy: -49.229888137665 gnorm: 0.283775853248 xtb: 6.4.1 (79825abcba525fcdf90b791dcacef51065a7a4e7)
C         2.46468567136737    0.92640285643829    1.96160473410190
C         3.57586147985565    0.64092171797009    0.91709283308487
C         3.91162909792894    2.04336831146393    0.31265018684024
C         4.39648299708468    2.22788188914275   -1.18407858040955
C         4.36399019264872    0.62464299973433   -1.50747791919169
O         2.92023790799353    0.41886054029827   -1.32760644721616
C         3.06304669677086   -0.36051293008336   -0.10819866344728
C         3.89576500465683   -1.51188515536066   -0.72095034759042
C         4.69375283903165   -0.97713923425174   -1.94878592524427
C         3.90605416641470   -1.37760113302795   -3.18553621970726
N         3.31386509886870   -1.64150532036526   -4.26706607106405
C         6.14410875992506   -1.21990303686031   -2.02428281503578
C         6.95174375305756   -1.86065535008893   -2.94525663015521
N         6.60243738349599   -2.30090354922018   -4.16646390594816
N         8.22111077788028   -2.00725577481765   -2.50741764385180
C         8.41027769800211   -1.49482401636728   -1.31395203498681
S         6.99726777495110   -0.88782481170937   -0.55792913919179
H         2.62035476333998    1.86632973510355    2.50601508719236
H         2.46964585672349    0.14220116376750    2.72953928929298
H         1.49263530409304    1.02021128357339    1.45810190653598
H         4.50738121309052    0.29006568755878    1.36130903640125
H         4.63553246254089    2.43889212499960    1.03171996069665
H         3.02573535515869    2.69557410595693    0.41883945354735
H         5.43279559138020    2.58690242567557   -1.21388911249607
H         3.73526006631465    2.75955564517645   -1.88718725116068
H         4.98416577085410    0.41755123380027   -0.61276536759023
H         2.10286705563655   -0.79214076577017    0.20455773614148
H         3.26213332305469   -2.34776543844239   -1.03391339937159
H         4.52673638688093   -1.96359609482930    0.05469129524232
H         5.71293605433081   -2.00716748505408   -4.56115786531624
H         7.41403294730746   -2.22623584290361   -4.77310994152894
H         9.36964135361241   -1.43158834419415   -0.81795406751463
