32
 energy: -49.227206166849 gnorm: 0.280774501382 xtb: 6.4.1 (79825abcba525fcdf90b791dcacef51065a7a4e7)
C         2.55257575611624    1.08602833174980    1.96856510409862
C         3.49739424274455    0.84429097677115    0.76187651549647
C         3.53772550914975    2.17575566629371   -0.05697782359648
C         4.33751818988951    2.21372937200068   -1.42380452711005
C         4.42926311906875    0.58370151059137   -1.52680890880062
O         2.97791553074724    0.35948882649286   -1.47741575955390
C         3.04161467843547   -0.27094238885238   -0.16849574576856
C         3.98430548157478   -1.45584166208340   -0.48769815613194
C         4.75834077414627   -1.05830768114361   -1.78120273704197
C         3.88149264900446   -1.42479920635637   -2.96746222040115
N         2.98564559201631   -1.64111302738093   -3.82810530555651
C         6.20478321090361   -1.33214015923003   -1.81260974325687
C         6.97641311343986   -1.51895112742469   -2.94429854890865
N         6.69777497545098   -1.30906110473355   -4.24256185142228
N         8.26524508424965   -1.78599279096361   -2.64083813961206
C         8.55089579106290   -1.91935495238345   -1.36673108029325
S         7.14301404164965   -1.71353917465089   -0.41167896630357
H         2.88940156691754    1.92086436435061    2.59600052570765
H         2.61726411573550    0.13557874208904    2.51370854729891
H         1.54552498815293    1.31218043235597    1.59186759482110
H         4.47782628560341    0.63312620089066    1.18886533410709
H         3.83742880523437    3.00775369454128    0.58761020322398
H         2.46072139023608    2.26697056949124   -0.28762528893014
H         5.33251488110232    2.64435618467511   -1.25566666337418
H         3.69053702056526    2.79444302205783   -2.10088766112969
H         4.97012968648189    0.50878420743855   -0.56251328594178
H         2.03485783891806   -0.62093997562837    0.09609158281604
H         3.41576989849093   -2.36594657287737   -0.70358510339596
H         4.64450324716343   -1.74005668317406    0.34124596241295
H         5.73827647748289   -1.42308351334593   -4.55821726019721
H         7.46971980987382   -1.59705794407272   -4.83707091823409
H         9.50457257778457   -2.20901175307429   -0.94602823809736
