32
 energy: -49.233455715171 gnorm: 0.277535148466 xtb: 6.4.1 (79825abcba525fcdf90b791dcacef51065a7a4e7)
C         2.30170533524794    1.27847301175290    1.88204238016886
C         3.39857339262196    0.99167868596721    0.82287018051970
C         3.47175061742506    2.23908833085425   -0.11710935378416
C         4.22913884612382    2.15982216542474   -1.50613977455016
C         4.33855928062211    0.52793048618488   -1.53735771122251
O         2.92034302309390    0.19737155935887   -1.34110718112433
C         3.07919817265821   -0.26656086573180    0.02794520883423
C         4.15032454805051   -1.35483682165522   -0.22282588851748
C         4.78423388904418   -1.10391857841414   -1.62479485065859
C         3.96878926721393   -1.66738073444651   -2.77716228643286
N         3.58368355466353   -2.20934544151472   -3.84861363286241
C         6.22081434997777   -1.36788925068482   -1.81113435306432
C         6.98223603411941   -1.31113947793501   -2.96354360082664
N         6.58656072898301   -0.72328921140518   -4.10593309326470
N         8.28024084240420   -1.65961684434117   -2.82850895893660
C         8.53822700278813   -2.04390541794284   -1.60030049736056
S         7.16399555770081   -2.13200771317621   -0.58032911689193
H         2.52318813379281    2.21624607414703    2.40702341737549
H         2.26268060350611    0.42308432983313    2.56870652849876
H         1.30715212437480    1.36792962419920    1.42372102998416
H         4.33918709999493    0.80477994847417    1.34101274626978
H         3.89104245581762    3.05603295619439    0.47814885963569
H         2.42481825770579    2.51793041429823   -0.33536610280878
H         5.20454741490753    2.65838515909009   -1.56730567660203
H         3.66179374930818    2.59678886118381   -2.34365645684712
H         4.93987206573163    0.52466587237643   -0.60653679739272
H         2.10820874982384   -0.68374337896902    0.32661289801739
H         3.64997406635661   -2.32444247518700   -0.13538964820699
H         5.03937219714706   -1.32059796591720    0.41920962661495
H         5.59550739027252   -0.68706904650813   -4.32904336394949
H         7.30437643849160   -0.68559806235312   -4.82398742278467
H         9.54929862980483   -2.17240851357359   -1.23751615709904
