32
 energy: -49.188426155650 gnorm: 0.292039341078 xtb: 6.4.1 (79825abcba525fcdf90b791dcacef51065a7a4e7)
C         2.46189699944882    0.29592481235500    1.99139382206640
C         3.38962309169853    0.34321531540162    0.74869346520785
C         3.73919734288495    1.84830116999964    0.50898182351623
C         4.14225728713681    2.40434957607356   -0.91849091632456
C         4.38459968449101    0.90294816750112   -1.52105361341910
O         2.95045856294651    0.58339052521372   -1.50546551857132
C         2.97037993967157   -0.44909236465719   -0.48157347204440
C         3.99878684061720   -1.43051097097005   -1.09291559208740
C         4.78218609853689   -0.61275423919398   -2.16430606555502
C         4.17053096271281   -0.74862538974176   -3.54915524449752
N         3.93238635206573   -0.93766316916488   -4.77291665781205
C         6.17766158109639   -1.06567946193311   -2.03911312897613
C         6.74051488377228   -2.32438626637654   -2.13853114162324
N         6.02286650897141   -3.41337567390917   -2.46451200404483
N         8.08651375583165   -2.42518130420252   -2.08739689473729
C         8.51312235635187   -1.31929874947175   -1.52369531331035
S         7.40998137923221   -0.01045871842588   -1.44224928383047
H         3.15346545018075    0.58857465040276    2.79149830715220
H         2.09191895213376   -0.67152225593336    2.35455052887682
H         1.74058999805975    1.12470267146973    1.99775818747049
H         4.24670255072618   -0.15370447039333    1.20327297768966
H         4.60867351144188    1.95431755480578    1.16496065541455
H         2.82774582263621    2.37902306891213    0.83920398531488
H         5.05254590750967    3.01501319797634   -0.96531794476859
H         3.32894861563861    3.02914767552064   -1.32149324893078
H         4.88692048632774    0.55741801090775   -0.59568989194175
H         1.96699019183994   -0.85360005840572   -0.29277029542114
H         3.30679329297789   -2.19510986239118   -1.45988193236520
H         4.68984545897547   -1.84043439809447   -0.34579552396546
H         5.26375970835139   -3.25409421383989   -3.12152273411464
H         6.44371749369829   -4.25788232523294   -2.84130770493909
H         9.50963486354162   -1.32154225821774   -1.10256688897200
