32
 energy: -49.230501763721 gnorm: 0.280180159578 xtb: 6.4.1 (79825abcba525fcdf90b791dcacef51065a7a4e7)
C         2.22736157391321    1.02385793225126    1.85199352071395
C         3.43207361581688    0.89672274645514    0.88260102482184
C         3.52306004533431    2.23701115834525    0.08241623504782
C         4.42389464269199    2.23145173950467   -1.22057712141279
C         4.50561413732411    0.61173943176874   -1.43475421302938
O         3.06059438367533    0.35314363489753   -1.37020221999026
C         3.10385745094983   -0.25917126130102   -0.05188075826993
C         4.01206171998777   -1.45101314697795   -0.43817124344052
C         4.77970365093780   -1.03366456514952   -1.72924212321249
C         3.95443918948401   -1.30468269654323   -2.97659050514866
N         3.25862181714088   -1.58956611589442   -3.98887493352233
C         6.20669691203102   -1.36693170660314   -1.87342809073222
C         6.94154030203742   -1.68919202057156   -2.99912079775727
N         6.47421161109732   -1.77613801046879   -4.25658846086626
N         8.26282086500058   -1.89239560072278   -2.80569564829556
C         8.57621873719481   -1.83688679543927   -1.53234136260132
S         7.28013213068684   -1.35859683697428   -0.51843114980624
H         2.24230464132939    1.94088569193663    2.45441764774952
H         2.24034187885188    0.15933196117653    2.52811979349993
H         1.30858222471532    0.94284215609578    1.25493574574034
H         4.29274987356129    0.75276581869303    1.53580067633549
H         3.88940480132886    2.98314746448222    0.79418069063080
H         2.49976417429536    2.50301718505447   -0.23939525708970
H         5.46581640208140    2.56126486445764   -1.12387882971605
H         3.96797679663009    2.72601502168854   -2.09338903029004
H         4.97415431454969    0.48807621584912   -0.43816362183017
H         2.11103817800472   -0.68440881207150    0.14698355700588
H         3.32113818668590   -2.25887358155173   -0.69916361429138
H         4.79472654035554   -1.69448652870967    0.29117374615003
H         5.52469605936602   -2.13399598411069   -4.31687696481726
H         7.10174332079187   -2.28973643249413   -4.86871806453349
H         9.49778172334131   -2.12873404378065   -1.04660665789321
