32
 energy: -49.226402559346 gnorm: 0.286216273841 xtb: 6.4.1 (79825abcba525fcdf90b791dcacef51065a7a4e7)
C         2.23685583087192    1.25356649072327    1.88857189119119
C         3.33845799169322    0.96841893467617    0.83387770724560
C         3.37992423410492    2.22518267906142   -0.09551601977636
C         4.13047779706653    2.25342985669013   -1.49021922020754
C         4.39629825038463    0.63946417218706   -1.51194745400054
O         2.99337569774507    0.22904176478059   -1.36200548663251
C         3.14630937277724   -0.28388147453266   -0.00986135812491
C         4.26478013540930   -1.32925616289027   -0.23515524776865
C         4.87894605597087   -0.98025838023589   -1.62487420607996
C         3.96973564507687   -1.41683465906054   -2.76203200510182
N         3.22439192608319   -1.56457254932040   -3.76835025330905
C         6.25826181459724   -1.44127471756147   -1.85534838037322
C         7.03727458476312   -1.55725636861892   -2.99144607114188
N         6.75318011656828   -1.07684806185021   -4.21442556092161
N         8.31165895873910   -1.97514503291425   -2.83081964280621
C         8.53932334037986   -2.26499078819941   -1.57110183267077
S         7.20520243929307   -2.01095190626545   -0.52601745111040
H         2.37220380520121    2.25440189619377    2.31762602926368
H         2.19603768972530    0.48067508894552    2.66683479023986
H         1.24001726444348    1.19923458598633    1.42970595011810
H         4.27745658106865    0.75210906127791    1.34343505750141
H         3.79152538550586    3.08701304709656    0.43868377269787
H         2.34107723584720    2.51847522443334   -0.33265032926751
H         5.02869122978355    2.88066545763838   -1.43092052191608
H         3.38027857888863    2.55219266722965   -2.24001683741430
H         4.91814298914217    0.69772148576569   -0.53608914029131
H         2.20111362471085   -0.79476658223789    0.21743911541897
H         3.86864419262267   -2.34701841195780   -0.30841610640090
H         5.05428567347958   -1.21804233230681    0.51856891605102
H         5.84031202172858   -0.85612170409805   -4.60330668420702
H         7.37039897800340   -1.38379537689706   -4.96082107246515
H         9.52346499127250   -2.49750708617197   -1.18666361779710
