32
 energy: -49.224955856089 gnorm: 0.290602067253 xtb: 6.4.1 (79825abcba525fcdf90b791dcacef51065a7a4e7)
C         2.27132970460310    1.29144543743402    1.96423584603818
C         3.30067508334542    0.98259184284014    0.84518543793822
C         3.46053294527319    2.24350861031807   -0.06557337989776
C         4.13553175944657    2.28463936015145   -1.49805738717918
C         4.37782257317042    0.66685714665336   -1.50773793015751
O         2.96722077100785    0.27226869606604   -1.39101885648960
C         3.10028859840841   -0.24153113538445   -0.03710771173637
C         4.11975457799283   -1.36653500365086   -0.33643667696008
C         4.84287749907097   -0.95526442512029   -1.65487050425736
C         4.06650024632282   -1.56670265221800   -2.80976093818953
N         3.64594911107965   -2.23258841992448   -3.79453148913602
C         6.25545973843525   -1.33101270802703   -1.83260907773504
C         7.03178285017764   -1.33398779623133   -2.97643781067297
N         6.71525328003916   -0.87728343754815   -4.20053372112988
N         8.25390932968847   -1.89783862925141   -2.86256761136271
C         8.43628077169301   -2.26531723082781   -1.61579949742248
S         7.14900198421641   -2.00478376252145   -0.51504914713044
H         2.61019786863726    2.08956962792779    2.63672687171500
H         2.30167554853054    0.40266681570683    2.60756474376786
H         1.24892846918715    1.56102304027336    1.66553756349527
H         4.20226523265528    0.85093849938703    1.44348269166046
H         4.05256180733285    2.96843715795432    0.50145125464139
H         2.43504234704781    2.64456061125826   -0.16035000451840
H         5.02518672419818    2.92617541702700   -1.47210104130021
H         3.50134556727396    2.53952816495814   -2.36240345195373
H         4.89309348591533    0.69401776389424   -0.52703742534124
H         2.14929726374778   -0.75988475658502    0.14452131778845
H         3.60877831153838   -2.32682335993995   -0.45842174850844
H         4.88551073425880   -1.41235876790372    0.44797731852390
H         5.73542518244296   -0.79045104530038   -4.45680281774975
H         7.29227785041381   -1.33374780562809   -4.90122264308626
H         9.40996829512394   -2.60916279558478   -1.29316317817555
