32
 energy: -49.229864924980 gnorm: 0.285109495825 xtb: 6.4.1 (79825abcba525fcdf90b791dcacef51065a7a4e7)
C         2.17895215832087    1.01302945547336    1.81577700906764
C         3.40529873352273    0.79104952957971    0.89164754785831
C         3.66550125158476    2.17526612675609    0.21254054766166
C         4.44680736521266    2.23508301206748   -1.16416140407437
C         4.44018062129403    0.61867388799937   -1.41554851081426
O         2.98575091402143    0.42621185991220   -1.33361303909115
C         3.08202070401530   -0.32473834013108   -0.09200979066150
C         4.04380373826811   -1.46633861133718   -0.49976539763063
C         4.77953272465844   -0.99764286499711   -1.79179680915724
C         3.90134122501211   -1.48830071632155   -2.93128125837124
N         3.22566233317269   -1.95167217636212   -3.88981402734421
C         6.18535736295348   -1.41562742935411   -1.92261100837503
C         6.95486697163559   -1.61137173104141   -3.05423361774753
N         6.64980194330416   -1.64942847074885   -4.36292290522575
N         8.24734755196859   -1.88866202771977   -2.77658030977327
C         8.55238316739638   -1.72694100745291   -1.51027458921861
S         7.21223820420263   -1.28465676689781   -0.53815740234692
H         2.29417586635737    1.89799389059093    2.45424351725067
H         2.12523460571618    0.09314867193628    2.41214447008400
H         1.22348863709379    1.15937746518422    1.29340860010027
H         4.29783466206135    0.67709867460154    1.50691320000142
H         4.15827540506168    2.80711389128040    0.95784487761264
H         2.66148373042455    2.55952935399953   -0.04387098220811
H         5.46332969226226    2.63374234210489   -1.27131224271180
H         3.80166204684722    2.71244501293944   -1.91925582763990
H         5.00637988933155    0.50610634130748   -0.46962978854022
H         2.07510746328608   -0.71401593085224    0.10961556192355
H         3.42548294406950   -2.36367532173070   -0.60270738416962
H         4.68186449221208   -1.67274939200175    0.36860127949595
H         5.66199169007265   -1.71770062548158   -4.59280685820175
H         7.36310319363102   -2.11977475312125   -4.91270262409851
H         9.54271749495046   -1.89331171016640   -1.10784438688550
