32
 energy: -49.228934730032 gnorm: 0.282605917627 xtb: 6.4.1 (79825abcba525fcdf90b791dcacef51065a7a4e7)
C         2.37218837487817    0.75898182803083    1.94076032188170
C         3.45458623427025    0.61830125035655    0.83810891735427
C         3.70218881152800    2.05344006177671    0.26888417024816
C         4.51262313114227    2.21797750408118   -1.08220768999758
C         4.39469660475416    0.63233084251544   -1.46670198448933
O         2.93780957026817    0.44786180479146   -1.41598543730862
C         2.95150327112462   -0.36443173654074   -0.20984929832111
C         3.91212799327285   -1.48028865371494   -0.68588070016730
C         4.74599672562799   -0.96730882906741   -1.89907179097867
C         4.02134147580881   -1.23413870019116   -3.20829553964061
N         3.17507347977490   -1.24041226273213   -4.14308496088776
C         6.20082717365155   -1.19440243363857   -1.90702217845940
C         6.89052918800362   -1.98429423212433   -2.80780665220302
N         6.50226435157037   -2.52867655192342   -3.97403087504148
N         8.22657464372526   -2.03078713210284   -2.61465317346353
C         8.58204658552063   -1.39664401141743   -1.52184358615594
S         7.28299211956728   -0.68780531741755   -0.65777131085495
H         2.65118243658570    1.36180279589721    2.81417158262933
H         2.08154344477795   -0.22142335179860    2.33957304427545
H         1.44216106204220    1.20886119271571    1.56678867895930
H         4.35362033917504    0.26567864135080    1.34363040806705
H         4.13331333784158    2.64192273010924    1.08457792431618
H         2.67528915761875    2.45188122068254    0.17845172541088
H         5.57426928828556    2.41419534856324   -0.88692787749588
H         4.02297901377980    2.87782735602901   -1.81644291187974
H         4.91624501885430    0.31467481225981   -0.54198732768056
H         1.92448198022044   -0.72977525984383   -0.07637467408222
H         3.20803538244386   -2.27454916823719   -0.95334033213271
H         4.54015301966565   -1.81837936128163    0.14782599646883
H         5.53127795733614   -2.66777052559502   -4.24070501826148
H         7.17476278476153   -3.14057633254209   -4.42746945919542
H         9.62980368148595   -1.47596326896328   -1.26434624191210
