32
 energy: -49.229111803672 gnorm: 0.290339654407 xtb: 6.4.1 (79825abcba525fcdf90b791dcacef51065a7a4e7)
C         2.38104314852738    1.02231625520794    1.87362250578732
C         3.50177915682121    0.82098459946861    0.81975693831904
C         3.72508933548174    2.22131481445474    0.16085246355806
C         4.52191947549767    2.16898720339840   -1.20722981240653
C         4.43920921184052    0.54830387852320   -1.41353642963776
O         2.97262830061703    0.46566000890093   -1.37570460798971
C         3.00244824111132   -0.26733960815780   -0.12007925249719
C         3.85225388231512   -1.49082046876113   -0.53896750211324
C         4.71305687191932   -1.08408263196764   -1.77343116428321
C         3.98246803859887   -1.49947391109863   -3.03995407349224
N         3.25773987925843   -1.85412617485017   -4.00899019572023
C         6.13402190416016   -1.44938306615908   -1.89825231168925
C         6.94131886595786   -1.68958381362771   -2.99443012530678
N         6.60120243090168   -1.74584358798941   -4.29379007427881
N         8.26011300584490   -1.76914919919326   -2.71346984965026
C         8.51304851506351   -1.59194045834780   -1.43779305626302
S         7.11513868737112   -1.33991102768818   -0.47917687894584
H         2.72821630228895    1.48991300821009    2.80362364239007
H         2.03492563433354    0.02636189279143    2.17857816484764
H         1.45638493131190    1.57417823529964    1.65532781797795
H         4.35328050260930    0.46113640311347    1.39734826124640
H         4.31598559223884    2.82639634407562    0.85529789974260
H         2.74699519874200    2.70488377294143   -0.01507139434753
H         5.56165057574482    2.50496328937054   -1.10819692405349
H         4.08216756273029    2.70778266372224   -2.06196500810302
H         4.97076470383002    0.30291248967398   -0.47266071017053
H         1.94648976641666   -0.54979082668407   -0.01407403715927
H         3.25196789875742   -2.35890210336222   -0.82917749752825
H         4.50921972664901   -1.81217855758915    0.27890319496762
H         5.60945342166105   -1.70363984616069   -4.51271828082711
H         7.33541012795841   -1.86597277069050   -4.98573665338901
H         9.50820722800437   -1.60120416490396   -1.01357061768687
