32
 energy: -49.227706514987 gnorm: 0.284119027654 xtb: 6.4.1 (79825abcba525fcdf90b791dcacef51065a7a4e7)
C         2.43808526986163    0.80840961946423    2.02096781352959
C         3.46249404006694    0.72042383403576    0.85904636917331
C         3.65847145795676    2.11013229549807    0.16966222501263
C         4.37829101898000    2.22986856313287   -1.23634225339147
C         4.30193243390108    0.61897864678141   -1.51060653276491
O         2.86440941964269    0.35607622092622   -1.35720927006105
C         3.02231726098080   -0.37023008093959   -0.10728248405299
C         3.98520016983200   -1.46886940057348   -0.61756726895937
C         4.74499807357679   -0.97245532526568   -1.88508382234263
C         3.94688601396887   -1.22548905319229   -3.15369775720276
N         3.25205253410219   -1.35186718765482   -4.19833891289979
C         6.17445530583571   -1.31912943435791   -1.95316782208734
C         6.98216661109328   -1.83612179527920   -2.94883439816256
N         6.59132202713142   -2.36567103518217   -4.12101132397195
N         8.26681012523935   -1.98725425497830   -2.55981340592272
C         8.52209786032753   -1.56315181182278   -1.34420825611061
S         7.12530200244785   -0.96160783772561   -0.55444761265221
H         2.82015079117720    1.58578267274132    2.69461097567305
H         2.40619917308341   -0.12597032410649    2.59597892405618
H         1.41441146292430    1.08454149175847    1.73280091596234
H         4.43766219920600    0.49593570241594    1.29126060286963
H         4.24477814747655    2.78671979138369    0.79895574516543
H         2.69279660802312    2.64541725398371    0.12068897236946
H         5.40885723764800    2.60338768132061   -1.19002873276706
H         3.90038523974329    2.97176539372408   -1.89622838141691
H         4.91771342401148    0.38581642871836   -0.61927917927287
H         2.03901808969011   -0.76669006888260    0.17908496340259
H         3.47567350338530   -2.36078569075156   -0.99571901281462
H         4.78515675491868   -1.76453791414353    0.07267704839335
H         5.66804555956656   -2.06632462537323   -4.42305288793353
H         7.31755129781451   -2.64814195451042   -4.77299541872075
H         9.53619569459957   -1.60820192081473   -0.97008604625795
