32
 energy: -49.227002191083 gnorm: 0.275191346890 xtb: 6.4.1 (79825abcba525fcdf90b791dcacef51065a7a4e7)
C         2.41921065439278    0.84869985214404    2.00933185568217
C         3.48851239663814    0.72361013396255    0.89211987153318
C         3.67310622216029    2.14658401556760    0.27081663811722
C         4.34623705397007    2.24719795970773   -1.15960193144756
C         4.43597961355829    0.64292197822398   -1.46662425783985
O         2.98853142218269    0.41128438330443   -1.36484708871071
C         3.04815370313973   -0.32952990575821   -0.11488225952798
C         4.00268881453921   -1.44946096686846   -0.59358838697367
C         4.71290600073265   -0.97189526084225   -1.89660049393783
C         3.94445796682417   -1.27755481512910   -3.17192401988065
N         3.41929492551062   -1.57975247605328   -4.27778137683686
C         6.13545121640827   -1.34768962710369   -1.95413376877354
C         6.95123860859893   -1.84414305656600   -2.95366142208447
N         6.52543219182766   -2.23536394570092   -4.16725762954951
N         8.23737987050980   -2.05308824396009   -2.59775429855108
C         8.47939639765876   -1.67148687735875   -1.36546415775406
S         7.11874048374922   -0.98914228720321   -0.57829388356465
H         2.76410206201759    1.62004123372018    2.70944643671273
H         2.26551046654471   -0.04082777593924    2.63370132208754
H         1.47705674772659    1.14461247962736    1.52769011291296
H         4.39861438753649    0.45771049471410    1.42986400393790
H         4.06868449976071    2.82062629547716    1.03679401265744
H         2.66691714223662    2.49452200454961   -0.02579586184299
H         5.31246184228926    2.75006895052225   -1.29097404091927
H         3.67584159769059    2.71633189111840   -1.89766550487148
H         4.95941765407393    0.50393088983761   -0.49982056169833
H         2.10381638222949   -0.72199841119845    0.28544210348963
H         3.38963655571364   -2.31354247518864   -0.86865366571571
H         4.76894501079777   -1.64482776581840    0.16698434396647
H         5.75075978273920   -1.71936785459288   -4.57580078330743
H         7.20176210119910   -2.67628422081597   -4.78406327227068
H         9.50546632574932   -1.55478973888733   -1.04304573470154
