32
 energy: -49.230499635219 gnorm: 0.278585961059 xtb: 6.4.1 (79825abcba525fcdf90b791dcacef51065a7a4e7)
C         2.19748442376177    0.83532579702849    1.84442490209407
C         3.37126179957733    0.73039509312815    0.83524082972106
C         3.59653826511842    2.15475598300418    0.23076268530150
C         4.41554178525198    2.27210625024675   -1.12008435223210
C         4.55351277665627    0.65763333778055   -1.34471534960996
O         3.10658300278961    0.41699683164935   -1.43194572530128
C         3.05003056592737   -0.34405253733362   -0.19405300669069
C         4.07443352225514   -1.45873103859554   -0.51441662048309
C         4.82724959470564   -0.95539323158892   -1.78336777215529
C         3.95269054413701   -1.07655373617120   -3.02064577287036
N         3.26861708543819   -1.27372586040011   -4.06141798726088
C         6.22297716548335   -1.41043924529403   -1.89757829146801
C         6.91729228883720   -1.93138882695419   -2.97348193417181
N         6.33035646862852   -2.49545812323115   -4.04330099129294
N         8.24214578775202   -2.04366193982000   -2.73547926087046
C         8.58780906912189   -1.55105735439183   -1.56903671589646
S         7.28998147107584   -0.97721154538250   -0.60832853426440
H         2.37593444041185    1.62678815358641    2.58322187444372
H         2.10703309421558   -0.13968789667935    2.34029508073883
H         1.23907654706775    1.01220147673027    1.33711200919574
H         4.12919983593517    0.33173895254604    1.50959994740383
H         4.00798683451395    2.80467354217599    1.00912876210378
H         2.57307405263421    2.53325284084179    0.05549883378959
H         5.40344506313827    2.73413732912484   -1.00049085859750
H         3.73355695708281    2.68455875803598   -1.88102730385599
H         5.11201591565401    0.44128699069502   -0.41236145027099
H         2.04052051781205   -0.76515371357109   -0.09593388259097
H         3.61539792539489   -2.43847748050760   -0.68029025035460
H         4.88445379759703   -1.67263376913276    0.19403267426015
H         5.48573907655344   -2.03690442992406   -4.37440035552567
H         6.96880761742470   -2.74400944814008   -4.79355721903440
H         9.59309186222141   -1.46449412448053   -1.17877440507243
