32
 energy: -49.229171052776 gnorm: 0.275146062936 xtb: 6.4.1 (79825abcba525fcdf90b791dcacef51065a7a4e7)
C         2.28149175340378    1.26526939106097    1.84252974477817
C         3.38718330804453    0.98417529292463    0.79103149798302
C         3.63143659988241    2.23951147872403   -0.10864546853019
C         4.30966272953924    2.13658964717179   -1.53649069250181
C         4.39933738227323    0.50446573324403   -1.47208690887129
O         2.95845271095158    0.26445427792825   -1.31281765626481
C         3.10541692282082   -0.29783156999656    0.02022729642694
C         4.11114344076315   -1.44021903311120   -0.25907087364700
C         4.74887803373798   -1.14334169332679   -1.65028488809202
C         3.94066747519461   -1.69112425003231   -2.81523991640960
N         3.60613770932879   -1.94758153323784   -4.00366730079676
C         6.19073453289540   -1.40621410256985   -1.79210979202684
C         6.93110107444715   -1.29353672247473   -2.95408732941536
N         6.49488744169622   -0.88576407889470   -4.15850410804029
N         8.23230287811349   -1.61411419601664   -2.78499780811035
C         8.49566215106839   -2.06085592857806   -1.57926387801800
S         7.16223902236712   -2.02580361063726   -0.50345265309394
H         2.53538311764215    2.23074747967092    2.29801769397606
H         2.41086627608796    0.52175859280136    2.63950797862961
H         1.25072503382031    1.34909929829181    1.47146431800732
H         4.21142853651151    0.92920020972608    1.50219571694942
H         4.10028298981612    3.00431317487443    0.51809046970018
H         2.64291560176415    2.68671665097493   -0.31909748976168
H         5.29084474086516    2.62294802180405   -1.60331582222263
H         3.71891386717282    2.37085162420656   -2.43670825572105
H         4.96924933653572    0.50390402792281   -0.52171048857669
H         2.16991003104633   -0.75788971108494    0.36553507230712
H         3.59857711360521   -2.40732160655206   -0.26998878654235
H         4.90920307319770   -1.58677574189949    0.47944762648524
H         5.50243390820140   -0.67578533919129   -4.22347893061090
H         7.05101465248839   -1.05391948814436   -4.99200774777319
H         9.50348528001403   -2.21836744694351   -1.21888349438162
