32
 energy: -49.228085625959 gnorm: 0.289908874700 xtb: 6.4.1 (79825abcba525fcdf90b791dcacef51065a7a4e7)
C         2.30865635852964    0.84302042235178    1.96339325775746
C         3.39211961060004    0.73531510530661    0.85807736778567
C         3.59767392666981    2.14598092632728    0.21564712210975
C         4.24371990112033    2.27379257472507   -1.22505213536454
C         4.36453202541094    0.65698599876672   -1.44267288355064
O         2.92810227857475    0.35024557218197   -1.40143307194166
C         3.05572959863235   -0.36309422407044   -0.14062765305869
C         4.02910434836798   -1.47500027567124   -0.59970166361168
C         4.82156494889616   -0.92840420071177   -1.82589778970648
C         4.00244599424431   -1.23119300824319   -3.06998514164046
N         3.20648303292626   -1.46821003094880   -4.01882972713467
C         6.25038237108348   -1.27050572659638   -1.92394720732033
C         6.99303662137761   -1.81620943653033   -2.95433680923414
N         6.55905443088247   -2.04234686598353   -4.20641586701950
N         8.30736907048229   -2.01921319616053   -2.71810174471549
C         8.53286818172826   -1.80072086681451   -1.44368350517502
S         7.28560579871114   -1.02428687806783   -0.56158231602839
H         2.59133170864556    1.61701452769670    2.68803510565547
H         2.18421176307588   -0.14700072119008    2.42065910785367
H         1.35870414162902    1.15430131142863    1.50744147422878
H         4.31960884944253    0.54870810367864    1.39946312948976
H         4.28090638173757    2.67285338225702    0.88880040071423
H         2.68363531028900    2.76660731858108    0.18714148045252
H         5.23173944211692    2.75048138608626   -1.20734981764334
H         3.77250706149181    2.84244475682246   -2.04288323296277
H         4.85435970769349    0.58202184252175   -0.45147940643948
H         2.06114542228915   -0.76070551470699    0.10180105166004
H         3.46226909450901   -2.37386618040329   -0.86213015281213
H         4.68891495956366   -1.77824469098418    0.22278262481340
H         5.58594884977679   -2.30316592454776   -4.34175161211303
H         7.11235059564604   -2.71732031422669   -4.72656607399532
H         9.54446264756584   -1.83542237640763   -1.06176230578954
