32
 energy: -49.226629108516 gnorm: 0.284147169512 xtb: 6.4.1 (79825abcba525fcdf90b791dcacef51065a7a4e7)
C         2.27568031934957    1.14238404640810    1.84351834891714
C         3.35457721443023    0.85559069518868    0.76604568893422
C         3.62381577570460    2.19128141324112   -0.00101894925540
C         4.62654371121992    2.14954356281042   -1.22662908666665
C         4.53778632992748    0.52462597936910   -1.39331092104755
O         3.08149316660401    0.35057083534959   -1.48295387420266
C         3.01452854665780   -0.28866503358574   -0.17847468881346
C         3.91202741637111   -1.51968524208107   -0.44981846185067
C         4.77837510066598   -1.12654015242172   -1.68480697841681
C         3.96538004680834   -1.45760261502045   -2.92570461724656
N         3.06572127513925   -1.73940312072502   -3.76310698250423
C         6.17954176450817   -1.57119444619777   -1.76954722447463
C         6.88061266288027   -1.61354519151725   -2.96023468236533
N         6.44942095099716   -1.35432203152857   -4.20685319095866
N         8.21940285712371   -1.72943616425240   -2.82349617447918
C         8.57642271827160   -1.61684449856827   -1.56548562989544
S         7.28523546740217   -1.54737436154286   -0.44093012605455
H         2.60196389466548    1.72743234282609    2.71261877762317
H         1.87423639122288    0.17058648223264    2.15843523685218
H         1.40939535859754    1.66151270224730    1.41079113648242
H         4.25996399780338    0.51199229618924    1.26641746794001
H         3.94182343660141    2.91041161946520    0.76007196673014
H         2.69284003233436    2.56948269214750   -0.46113224078240
H         5.63522111032261    2.44839689356787   -0.91520526143901
H         4.30097910334604    2.69183589077270   -2.12894902228300
H         4.97680039423039    0.31782165974596   -0.39706099292884
H         1.99538349621527   -0.63061679821536    0.04619497202633
H         3.33920617111400   -2.39199785335349   -0.78008708373924
H         4.59288274311336   -1.76959181693453    0.37344963069535
H         5.57200282415707   -1.75452992164974   -4.52817528967713
H         7.14887521167954   -1.58455494333278   -4.90688075021425
H         9.56405043457147   -1.83979158766752   -1.18433284028730
