32
 energy: -49.226348358262 gnorm: 0.289294813729 xtb: 6.4.1 (79825abcba525fcdf90b791dcacef51065a7a4e7)
C         2.40614785029336    1.11418040275887    1.90702324592693
C         3.44647606900467    0.90910220096337    0.77438190889148
C         3.72026947873282    2.28468439991135    0.08318147610976
C         4.42585585823192    2.18421894433956   -1.33151994936901
C         4.43909131939646    0.55074470421231   -1.41872430979006
O         2.97094397091190    0.49125980121661   -1.42993765378431
C         2.95314553370623   -0.19624065758719   -0.14861059355067
C         3.84685445278207   -1.40582380980394   -0.51293925781162
C         4.73616985580697   -1.08322259807432   -1.75203754734656
C         4.02540085115958   -1.59210503342980   -2.99551506963738
N         3.43388597719387   -2.32700982040996   -3.83221409573239
C         6.18153569241014   -1.34423481819081   -1.85671130768475
C         6.95957094360339   -1.39662470705058   -2.99817837162198
N         6.56137300349650   -1.12587246517157   -4.25329281623011
N         8.25183261577524   -1.70858086203280   -2.75894950718634
C         8.50799745112995   -1.85342863919463   -1.47983680976494
S         7.12529638598699   -1.76642942044888   -0.47128111087362
H         2.77131711828478    1.77965333540781    2.69940902173489
H         2.20944853930328    0.14864781258775    2.39052772142599
H         1.44547518631174    1.52973978536937    1.57293423530883
H         4.35102567976766    0.60935006705199    1.30362255699926
H         4.22172483882823    2.90330872963100    0.83376989095168
H         2.76557013601097    2.81436060053008   -0.08842438165481
H         5.50058773556744    2.39804096724097   -1.27711638248061
H         3.77299044389398    2.61796969533272   -2.10604018157454
H         4.94548208925284    0.44547524854596   -0.43867225948349
H         1.93555969101560   -0.48989771264352    0.14181785406926
H         3.26936376417155   -2.32825031469306   -0.63026220890533
H         4.54415528232223   -1.63639677557715    0.30216520370326
H         5.58556550792960   -1.35096315206807   -4.42767955026022
H         7.23018394846796   -1.46944774559745   -4.93661556997778
H         9.51722123044553   -2.06237671235100   -1.15089999923253
