32
 energy: -49.230649540322 gnorm: 0.275241250955 xtb: 6.4.1 (79825abcba525fcdf90b791dcacef51065a7a4e7)
C         2.17161092013913    0.79607680550735    1.89161758173075
C         3.35500562633523    0.67191501763068    0.89593837217459
C         3.60367143375133    2.08752752329609    0.28018371054930
C         4.44141959964545    2.28650784869138   -1.04944421012210
C         4.50482368338151    0.68524450982128   -1.37800698457764
O         3.06221439737441    0.40835982903049   -1.34148091450539
C         3.06333050675402   -0.40707889375191   -0.13739157207851
C         4.09347362949124   -1.46502324188572   -0.60010240261912
C         4.81209927799601   -0.90738759713069   -1.86617414491536
C         4.04938208174364   -1.04270907184735   -3.17397413467675
N         3.26698557080965   -0.94843090076189   -4.15835590300282
C         6.23884179499058   -1.25717892401560   -1.96725911559806
C         6.89264999543286   -2.01555770783604   -2.92037351015241
N         6.32206246627448   -2.65447938236339   -3.95641868332212
N         8.20601914253117   -2.23303813357771   -2.69178859999748
C         8.56990822022626   -1.69019569389793   -1.55352790159057
S         7.35476022445435   -0.81094911344320   -0.72469951391599
H         2.16353485630089    1.77387835653929    2.38953016433009
H         2.08200948740864    0.01831403984307    2.66088804285255
H         1.22089771756029    0.75248749622043    1.34258077656511
H         4.20867009111930    0.36802656098082    1.50179791908992
H         3.97131574712662    2.66104203747171    1.13660374089115
H         2.64968656345891    2.60861494981499    0.08059151686429
H         5.39656709686741    2.77752962308927   -0.82512506456204
H         3.96456623667497    2.87269965363468   -1.85146951264961
H         4.97798316095867    0.52235904856666   -0.38926853228308
H         2.03309271069232   -0.75737669275908    0.01081649709119
H         3.53324756467068   -2.35938438826576   -0.89061182658252
H         4.83724261413263   -1.81816912086407    0.12507571599225
H         5.37074740087213   -2.41510629901655   -4.22283374873211
H         7.02264999762160   -2.95071305005585   -4.62999478295205
H         9.56830681370714   -1.82240915161786   -1.15841879145737
