32
 energy: -49.229375798565 gnorm: 0.289234363284 xtb: 6.4.1 (79825abcba525fcdf90b791dcacef51065a7a4e7)
C         2.39211564803736    0.80139894133078    1.97393960605966
C         3.47411624190562    0.58656793493613    0.88291319711507
C         3.77481560711281    2.03130991805084    0.36595309125694
C         4.49483398776486    2.21969166481052   -1.03240717030087
C         4.35894641417077    0.64823899805527   -1.46609940623464
O         2.91096998440004    0.41319446174578   -1.38101620860004
C         2.96685641031543   -0.38922974132942   -0.16950277202041
C         3.88197850695843   -1.49429696547841   -0.74908917086360
C         4.72077636962303   -0.93743091357774   -1.93931450794801
C         4.00406558596903   -1.09534945812951   -3.27039588846622
N         3.45649999633512   -1.20182641034447   -4.40126932589781
C         6.15922901864264   -1.25146524868813   -1.95938407558671
C         6.88446021737508   -2.02601077057640   -2.84547072429188
N         6.44211110269693   -2.82137534297229   -3.83486604441277
N         8.20626676951568   -2.03195424754105   -2.56747893292573
C         8.49609076104459   -1.45597789592210   -1.42424497174943
S         7.17526085898319   -0.63579133195039   -0.70360770666154
H         2.76385815162531    1.52570830852160    2.70964436218231
H         2.27135809898815   -0.11148191049752    2.57125572373445
H         1.44449581106301    1.18398439254907    1.57040267801934
H         4.34847623318771    0.19251273477325    1.40095963224892
H         4.37591646257244    2.61225567245228    1.07215157683267
H         2.84083802028415    2.59973449810354    0.20459743541310
H         5.54893985055776    2.52379959158931   -1.02204338416831
H         3.79965605419874    2.81850655302239   -1.64265541924008
H         4.91626964363659    0.29934792675730   -0.57408979945050
H         1.99224623100721   -0.81889323467170    0.09805727641870
H         3.32849820090612   -2.35796622982145   -1.13101296515797
H         4.65595202636365   -1.77590963374704   -0.02421199218727
H         5.57772684187196   -2.56473884942060   -4.30417870824501
H         7.18844082800555   -2.98077555800929   -4.50558621892041
H         9.47114681959461   -1.25577104349078   -1.00048294220248
