32
 energy: -49.228744196668 gnorm: 0.282837961282 xtb: 6.4.1 (79825abcba525fcdf90b791dcacef51065a7a4e7)
C         2.08594778582005    1.09529884078547    1.79186438558413
C         3.29964712551976    0.77240876655351    0.88088020209580
C         3.64053551405404    2.15813902192527    0.24174483164842
C         4.48362341638824    2.18365777212537   -1.09910458252312
C         4.47298561771619    0.56325066772757   -1.32312581651671
O         3.01186551242581    0.40969373795307   -1.34899346337049
C         3.00542021721525   -0.34734858458793   -0.10737432632268
C         3.97714613980358   -1.49337487195948   -0.47739445467894
C         4.78990549267571   -1.04979913352213   -1.73157976848169
C         3.89630169237761   -1.28439718349212   -2.93857034490694
N         3.45416122117813   -1.52661106009406   -4.09437499478429
C         6.21103256683218   -1.41069353494066   -1.86692902291408
C         6.91146783849412   -1.79549552329062   -2.99491326724762
N         6.41612481238631   -2.16063867292434   -4.19010630779904
N         8.25187836143070   -1.89189061486892   -2.85891719696701
C         8.62166547971817   -1.63650729525116   -1.62572319769383
S         7.34014053709875   -1.20045637121643   -0.57492868433708
H         2.44216105308207    1.68548029685805    2.64560673166012
H         1.53445736634156    0.25660616313271    2.23590637538019
H         1.35157697255138    1.66767465947601    1.20852703390635
H         4.15755908399719    0.48610942949658    1.48930173770870
H         4.35371612517420    2.68020659130200    0.88700088796292
H         2.72569815673126    2.75962919552270    0.09095204862766
H         5.53002033622285    2.49597711615350   -0.99309362882067
H         3.98513495482874    2.72994329669420   -1.91601089866065
H         4.98209445299337    0.45072694703438   -0.34529050466916
H         2.01278812296568   -0.81388128695745   -0.05176081849381
H         3.44295316540108   -2.42376552623919   -0.69451637057537
H         4.64037215707240   -1.74572369792951    0.35940835448525
H         5.45877193252972   -1.87998583698500   -4.38500695939970
H         7.10240091257320   -2.37232520637620   -4.90878284230988
H         9.65669588718483   -1.56613625128455   -1.31888231052524
