32
 energy: -49.224429370202 gnorm: 0.271211161294 xtb: 6.4.1 (79825abcba525fcdf90b791dcacef51065a7a4e7)
C         2.69324306526322    1.30398126562540    1.95682360386851
C         3.55455997831191    0.99035986642484    0.70502846757629
C         3.65453095382946    2.23946388747830   -0.23022134086545
C         4.15035635390410    2.11202807699167   -1.72930201134914
C         4.31245045106933    0.48597206414591   -1.65390175801244
O         2.89051751142856    0.22478428012020   -1.39120708452325
C         3.04669242198071   -0.24559749342844   -0.02404832082060
C         3.99034515494996   -1.44821635668035   -0.26440182025354
C         4.63912942615382   -1.17609910045984   -1.65557009275036
C         4.01324944972401   -1.86008749161563   -2.86007181294447
N         3.87139477309092   -2.18646444645047   -4.06978065690799
C         6.07533547380165   -1.48676890751535   -1.75024235874371
C         6.90965635197819   -1.08755987354788   -2.77765241770883
N         6.54516639653871   -0.43268985174437   -3.89366001965744
N         8.19113180221168   -1.48261719169486   -2.61567185080532
C         8.39830250671716   -2.07055722558038   -1.46062319006474
S         6.98775800349476   -2.26961165077204   -0.50807018007738
H         2.78531938975497    2.37209226164664    2.19078703478284
H         3.17295759603229    0.65198022465447    2.69809885060571
H         1.63992534576049    1.03578021166587    1.79624025654558
H         4.54448209435669    0.69137726134715    1.04973212344135
H         4.18734351367166    3.07858430186853    0.22751680957004
H         2.59410345466332    2.53006593863157   -0.34202585965838
H         5.08047897096621    2.68571391166795   -1.82669134996104
H         3.32824610043403    2.38822761076105   -2.40908366519153
H         4.97077539905893    0.59992975054635   -0.76979927426136
H         2.08854495267254   -0.61658810571967    0.36374478261965
H         3.49091241964971   -2.41882287421791   -0.18303379792273
H         4.75341562759671   -1.51740697245401    0.52091577942350
H         5.58218846530762   -0.34027169519517   -4.20576449084289
H         7.26559659921742   -0.26741724023154   -4.59075923930487
H         9.37545749566141   -2.33115005348453   -1.07636954453494
