32
 energy: -49.231931299600 gnorm: 0.284287830361 xtb: 6.4.1 (79825abcba525fcdf90b791dcacef51065a7a4e7)
C         2.26038110741535    0.98731336326030    1.90468059250765
C         3.40053364938076    0.81969195894300    0.86584878814191
C         3.56873742212482    2.18636021723882    0.12498940818058
C         4.45652963473463    2.30787343863459   -1.18129734977626
C         4.46070658833866    0.69132599981122   -1.43184631501238
O         3.00973538506994    0.45954488240153   -1.42285131434208
C         3.01673084789543   -0.24586114364120   -0.15118858221588
C         3.99555314722373   -1.39459728967948   -0.49302859697707
C         4.81290610364997   -0.93678962026064   -1.73908810698288
C         3.96369611580901   -1.31090784486611   -2.94294367555005
N         3.37603023043078   -2.10326925022162   -3.72834317579919
C         6.20088207991195   -1.41430322388869   -1.85600610582488
C         6.90907637531432   -1.61407836081450   -3.02629724072017
N         6.52308168813544   -1.49708498982449   -4.30867834343005
N         8.20389232721482   -1.94745610884861   -2.83446854218674
C         8.50442731711951   -1.94201011784270   -1.55682240335942
S         7.25722239067903   -1.45306744875867   -0.48816406864061
H         2.54872254356948    1.68735359379805    2.69896072470151
H         1.97782276305470    0.01045358105201    2.31774974861789
H         1.41404205508048    1.37210967274115    1.31915600350224
H         4.33984108415593    0.55615797431557    1.35206724396986
H         3.94767644307374    2.95330544535606    0.80743848648960
H         2.53209969395882    2.43407523400987   -0.16737299482432
H         5.49070912425485    2.62962908456126   -1.00615656204682
H         3.99724389728138    2.93913098662016   -1.95900234887093
H         4.96640560313757    0.49298804116348   -0.46595508989499
H         1.99055462343101   -0.62819344154789   -0.06843309442244
H         3.52245948774442   -2.34871964663475   -0.74593915619379
H         4.70562499338857   -1.56766860094072    0.32528181017736
H         5.54638953155566   -1.56759123632849   -4.58140185614986
H         7.17342595319387   -1.85293223386445   -5.00344960896865
H         9.49982475911407   -2.12133930521875   -1.17287405422494
