32
 energy: -49.227563386558 gnorm: 0.286052508196 xtb: 6.4.1 (79825abcba525fcdf90b791dcacef51065a7a4e7)
C         2.19278830643081    1.20508258591087    1.79078124925922
C         3.36664497840174    0.97918023675865    0.80171860554249
C         3.42434406778233    2.25821660554088   -0.09588043569989
C         4.19755095603762    2.22315186616853   -1.47799734246127
C         4.44683680262803    0.60955302058814   -1.37713509707227
O         3.02379177535111    0.25159812198684   -1.30011579082621
C         3.15355771009890   -0.31674547061799    0.03214509390276
C         4.23471286527306   -1.38301899189429   -0.26569164310362
C         4.86598532605709   -1.01021006405636   -1.64149198456040
C         3.94614228972377   -1.31932802273023   -2.81141724823871
N         3.16302946324386   -1.63493208248162   -3.74799000136588
C         6.26589002104668   -1.40113986933491   -1.87730351042371
C         7.04721692921303   -1.50861992528309   -3.01264790112212
N         6.70659047716037   -1.06036392135775   -4.23339390548059
N         8.30648889145842   -1.95840572138677   -2.82182292325169
C         8.53106509828065   -2.28293336542714   -1.57003303447526
S         7.23762604983925   -1.86711050611937   -0.52565643916288
H         2.45838013601058    2.08217927692908    2.39430458040223
H         2.03245103581250    0.34688214339780    2.45599124593143
H         1.19392712705308    1.32514314068919    1.34912658500205
H         4.23704767033197    0.78770939943237    1.42932921452487
H         3.83033223580924    3.13467254967589    0.41844931662670
H         2.38360274204042    2.52839539039693   -0.35145273619942
H         5.09796956936717    2.84918203025744   -1.51056664164477
H         3.48428952932650    2.39439266706186   -2.30030463224068
H         4.88721003830429    0.68946529777807   -0.36337934366235
H         2.20687700996445   -0.78601483719068    0.33155453176280
H         3.79809691162958   -2.38012111063363   -0.38095093950276
H         5.03508207283185   -1.36305138783898    0.48450702956110
H         5.74775837054951   -1.12212712003046   -4.56521179375347
H         7.37109433519917   -1.38770842160430   -4.92878030072449
H         9.36554599313331   -2.84760838669601   -1.17611030949981
