32
 energy: -49.226561945607 gnorm: 0.287455011050 xtb: 6.4.1 (79825abcba525fcdf90b791dcacef51065a7a4e7)
C         2.33842500755904    1.30194819115672    1.74997157193392
C         3.52077226935138    0.92204498237637    0.81994749953206
C         3.79481327414584    2.18881752881441   -0.05477308400990
C         4.55258041348087    2.07678710160450   -1.44133852329526
C         4.40528150183688    0.44769606734599   -1.46091614187503
O         2.94495292848789    0.37328782345642   -1.31591720291822
C         2.99708522486913   -0.24736478126946   -0.00182235558761
C         3.90091777140110   -1.45630327699610   -0.34255223118739
C         4.69262784214469   -1.20939612550540   -1.66260904946812
C         3.99993259707100   -1.83410802869689   -2.86273344645243
N         3.30686538115135   -2.35449274608640   -3.77864704294767
C         6.12882128439418   -1.47625763717882   -1.84781078332360
C         6.91171366545973   -1.22258758618616   -2.95855900693353
N         6.58871801674956   -0.71357563289704   -4.16012518320297
N         8.20665430389838   -1.55736949193034   -2.77004604990062
C         8.49681736899544   -1.87844026474629   -1.53091347176351
S         7.12797303320560   -1.89290654790609   -0.50005382704392
H         2.50145632620773    2.26470578914644    2.25056784935131
H         2.08602941412955    0.49353839707939    2.44817673428147
H         1.49862460163001    1.40284848290226    1.04872165584659
H         4.42740405294241    0.58840881105142    1.32478679834670
H         4.34059324351405    2.93900465737498    0.52564056672275
H         2.85533951169225    2.72391565067534   -0.28393532563724
H         5.59398747383213    2.38028292852204   -1.27674865912752
H         4.02388950333741    2.51788649275646   -2.30167089963072
H         4.92319980171544    0.42061824955428   -0.48160887762609
H         2.01841467249266   -0.64792403375935    0.29452259930787
H         3.21590560407581   -2.27746335843557   -0.57618716064514
H         4.60209897261452   -1.77131924758770    0.44032545909033
H         5.58277050094459   -0.71382887663611   -4.30622908135362
H         7.21238185539699   -1.08945776702916   -4.86867163611885
H         9.49924723945519   -2.03651175220580   -1.15602799925389
