32
 energy: -49.195823299141 gnorm: 0.289625084916 xtb: 6.4.1 (79825abcba525fcdf90b791dcacef51065a7a4e7)
C         2.26292291952599    0.87435115006959    1.82983326853050
C         3.42511305057456    0.73542452660929    0.81138849039859
C         3.62843041807892    2.17019387950467    0.22398214809130
C         3.86380364548967    2.33267527353429   -1.33406945989527
C         4.23221051578479    0.74661201350879   -1.49122403866159
O         2.89298538365706    0.15853942705706   -1.35062705207863
C         3.14812473864049   -0.47623740761683   -0.06737533002594
C         4.38062203759082   -1.33245558699950   -0.44471239604042
C         4.86601007905205   -0.78881824293907   -1.82281794682020
C         3.90769219018112   -1.19374135916440   -2.93099408177472
N         3.33143590793260   -1.61890339516007   -3.96887947428149
C         6.28314881256037   -1.15125486152292   -1.99170803804056
C         7.01700359942554   -1.66665916714858   -3.04377559985020
N         6.52705747488794   -2.19628093664940   -4.17807459984252
N         8.18692771938432   -2.21473789215521   -2.64959976392383
C         8.54410034395321   -1.89453426375186   -1.42786822770928
S         7.35361470471333   -0.93729125748365   -0.65130820638947
H         2.38122839014623    1.74652409097950    2.48511657645158
H         2.00127174541723   -0.02842657717440    2.39662372205874
H         1.41404197780075    1.15097258935351    1.18945934494396
H         4.18586859104064    0.35983244629719    1.49574117939124
H         4.47659067436882    2.64752463448971    0.72429808747080
H         2.73616075266195    2.75182968543765    0.51895827840275
H         4.68219219594229    3.02373691811889   -1.57156090943201
H         2.96426772531359    2.43705927691036   -1.96191789852224
H         4.87352525247420    0.67864911659458   -0.59005160898418
H         2.28834934108722   -0.98640788632393    0.38713148880136
H         4.20729214213076   -2.41223121554552   -0.49131897816156
H         5.18501001158751   -1.26317175576867    0.29821920493105
H         5.54575699983632   -1.97647040197689   -4.32643067493177
H         7.04058570453544   -3.01191639386496   -4.49949270261536
H         9.53953132399854   -2.03634266728020   -1.02862031037795
