32
 energy: -49.228443068012 gnorm: 0.281495819802 xtb: 6.4.1 (79825abcba525fcdf90b791dcacef51065a7a4e7)
C         2.33345985464264    1.19924630953882    1.90075345917092
C         3.40648947528518    0.98688130703796    0.80042404935091
C         3.35271270179460    2.30892388806730   -0.03279784697045
C         4.12284568064801    2.26106856585821   -1.41624666358237
C         4.38616128863738    0.64725390707235   -1.46404818297407
O         2.97698038733051    0.23850064114783   -1.38498625403065
C         3.10255876258008   -0.25651695071638   -0.02338412530186
C         4.13374841317549   -1.37976650729532   -0.28701408205611
C         4.84987462460956   -0.97523730804192   -1.61133933329451
C         4.06677299114993   -1.42279244310534   -2.83479202904048
N         3.43373007345142   -1.69035043457160   -3.89200985850733
C         6.26035367134134   -1.34354428347767   -1.81886085668882
C         7.02103552120255   -1.47671806461090   -2.96544642219527
N         6.68984533068550   -1.06859377549257   -4.20275327952628
N         8.27685879241376   -1.96295429782748   -2.86071079972914
C         8.50390298533768   -2.31667253498535   -1.61730220366285
S         7.21918540566169   -1.98674701910023   -0.53228349842557
H         2.43411040736837    2.19743088182252    2.34524762378095
H         2.30019188827022    0.45742619620306    2.70903344856778
H         1.38322878938194    1.18382046657339    1.34937337111892
H         4.38038985840329    0.88070918873407    1.27833882102237
H         3.88381263201656    2.97867459072813    0.65050543033649
H         2.32530995138405    2.64055287801263   -0.26927635227688
H         4.99163652040421    2.92938423658418   -1.46404667902686
H         3.41470212160189    2.52061035389266   -2.21963032664339
H         4.82538514840621    0.63004820716541   -0.44679616947635
H         2.15254910158266   -0.66344676183278    0.34803729498152
H         3.59564067548491   -2.32902842221455   -0.37345890450289
H         4.88956159186405   -1.48505682453050    0.50130565593474
H         5.72182441432912   -0.92189063820578   -4.47604892196782
H         7.33354418288632   -1.39800777649466   -4.91649009373586
H         9.44613983993813   -2.65690720984109   -1.20886440605992
