32
 energy: -49.230964472875 gnorm: 0.270592651524 xtb: 6.4.1 (79825abcba525fcdf90b791dcacef51065a7a4e7)
C         2.56602815890448    1.07412940097401    2.00999253840751
C         3.50779808821521    0.86568839939142    0.79474029297512
C         3.58473679382089    2.18518197901550   -0.04070233628592
C         4.42016631927481    2.16189698725009   -1.38637721886747
C         4.40593968006440    0.52681397653413   -1.43453316362502
O         2.95120549877397    0.32287207962179   -1.39879813862250
C         3.03402939153272   -0.28590515471632   -0.08073016475365
C         3.95852064077439   -1.46375108224252   -0.47129042567726
C         4.67932607389983   -1.10311936049968   -1.80572000200747
C         3.94323527148744   -1.70760996025929   -2.99026703681250
N         3.51325954836548   -2.03890007217320   -4.12842690106176
C         6.11632971810998   -1.42109937614482   -1.85127878542564
C         6.91692917559021   -1.45813844626282   -2.97764427693795
N         6.50970648379374   -1.29683247099002   -4.24860088575721
N         8.22618700666000   -1.62700954014301   -2.69161315533462
C         8.48635632405932   -1.59909373332091   -1.40543150951901
S         7.07957052454257   -1.59885043978511   -0.42687678357843
H         2.94300741539676    1.90577328779444    2.61854255454277
H         2.53100623742227    0.22766444588271    2.70783988868285
H         1.55203123905158    1.23652459836117    1.61930713847831
H         4.45828061520631    0.72908487523429    1.31056918615739
H         3.97811064661333    2.96027597850616    0.62414562600205
H         2.56339036984921    2.51709780414703   -0.30173806345033
H         5.42858560505894    2.58200584276374   -1.28475391087627
H         3.81331764136624    2.53438090045267   -2.22735579530358
H         4.99809310853256    0.43278530796970   -0.50258455150095
H         2.07979130453632   -0.68711638927255    0.28604404087002
H         3.35356781417719   -2.36797537816011   -0.59187785821110
H         4.73658643862996   -1.68140419321457    0.27102242057904
H         5.50549421712383   -1.39166765026373   -4.37446124052026
H         7.20086787172701   -1.45920469892250   -4.97538368052003
H         9.44925794089822   -1.80485408620745   -0.95724124686082
