32
 energy: -49.229488987971 gnorm: 0.279586423381 xtb: 6.4.1 (79825abcba525fcdf90b791dcacef51065a7a4e7)
C         2.44577037207898    1.19094851883909    1.85225517093445
C         3.51725545136185    0.97576831598833    0.75096798095806
C         3.71737292129049    2.24956459508616   -0.13353373861024
C         4.21834934545745    2.12321136838078   -1.63099260380998
C         4.35505945510992    0.49344590580306   -1.59645661405858
O         2.92964760073197    0.20187830331983   -1.39076215588923
C         3.10545598338684   -0.26705369487703   -0.02549042671354
C         4.04153184503987   -1.46924365318807   -0.29575640647922
C         4.71029182226989   -1.16113115441909   -1.66985420939782
C         3.98488514618089   -1.79382681713921   -2.84623492675372
N         3.40504150903440   -2.21839386799608   -3.88236441452127
C         6.15649176576715   -1.42641975916001   -1.74918919977925
C         6.94589324986544   -1.13256691455147   -2.84533080084877
N         6.54027378299333   -0.59507230665733   -4.00883973371448
N         8.24899099205325   -1.46428063485951   -2.71730892787195
C         8.52803905655633   -1.90095893845630   -1.51141721242792
S         7.15348700668495   -2.09900605958117   -0.50742533157038
H         2.62267239126748    2.12029636835539    2.40821945604806
H         2.32355003370335    0.39452943114799    2.59757336118074
H         1.44721327886632    1.25949325532466    1.39906383638187
H         4.46288893370133    0.87065167387635    1.28283714887990
H         4.36027862231200    3.02270732165205    0.29827535350966
H         2.71092779401080    2.69961992417508   -0.21082985502253
H         5.19067519424884    2.61019495435649   -1.77644924684619
H         3.44934421320943    2.51562629632121   -2.31575254537893
H         4.89522422952562    0.43348004481227   -0.63072300256689
H         2.14206810947935   -0.69717534103762    0.27937556475934
H         3.37384466515730   -2.33459346799947   -0.35486947364183
H         4.74469229683589   -1.64039081500927    0.52890209532504
H         5.56961528125402   -0.71463489489435   -4.28597449500576
H         7.23471571984248   -0.72410580445783   -4.73917033824429
H         9.42814304628006   -2.30817559286041   -1.07053314383288
