32
 energy: -49.227295877667 gnorm: 0.287280369647 xtb: 6.4.1 (79825abcba525fcdf90b791dcacef51065a7a4e7)
C         2.65648233342195    1.44091371705479    1.82543686925961
C         3.60108749930552    0.96909201386652    0.68863361962347
C         3.73779495922881    2.16517824395361   -0.30918202102895
C         4.32842826819977    1.96263632152971   -1.76501670660848
C         4.31673104733172    0.33274856111268   -1.62592351525901
O         2.88571095505633    0.17593224074118   -1.33145626478628
C         3.06171044172120   -0.29449503139170    0.03327633235364
C         3.93711014184907   -1.53310775456654   -0.27340964633307
C         4.65956740852996   -1.32601256218291   -1.63923725378035
C         3.97102250384130   -2.03192100026941   -2.79595218009317
N         3.30804320166348   -2.32023366285529   -3.82909030709202
C         6.11452574783564   -1.48739295642038   -1.79804200118873
C         6.92699978782719   -0.97525165372359   -2.79233964900093
N         6.48642134634566   -0.21217743953098   -3.80761745128287
N         8.24224577782607   -1.05815590022840   -2.49612657890919
C         8.47044107684258   -1.70342613677426   -1.37617844692200
S         7.06452354926895   -2.34768781112478   -0.63797895008686
H         3.07121312606362    2.29014268738398    2.38300889252677
H         2.64182847040577    0.63084609926065    2.56590705646312
H         1.63721352144297    1.58209626525513    1.44026728121706
H         4.55171728385943    0.76079476034469    1.17962472827743
H         4.31234254059738    2.99151276290987    0.12047231332167
H         2.69295211860964    2.50424775983542   -0.43080267789231
H         5.39614809242673    2.20830110980692   -1.82290796414713
H         3.76305362352028    2.42483279800454   -2.59023211722816
H         4.96049214917525    0.33063246448496   -0.72393545382502
H         2.08197989326750   -0.66785602439300    0.36006941201275
H         3.30744735652031   -2.42762066559381   -0.31216852488109
H         4.73188547219796   -1.80985713629926    0.43052896708153
H         5.49583188759303   -0.33269832097000   -4.00122545040064
H         7.15331347319351   -0.08307991334396   -4.56317734663839
H         9.43251000974806   -2.11448821829444   -1.10078292875659
