32
 energy: -49.231276421005 gnorm: 0.283987253270 xtb: 6.4.1 (79825abcba525fcdf90b791dcacef51065a7a4e7)
C         2.34795195740462    1.17358011510096    1.93747788827396
C         3.38549235534478    0.91605093832244    0.81302027832069
C         3.48867375637626    2.25712582865161    0.01563768897990
C         4.27102583651193    2.15463223009340   -1.35795098790794
C         4.38106025038326    0.52523637798351   -1.45271096781525
O         2.92564423853355    0.33743792750025   -1.37776562128754
C         2.99243249232180   -0.26901856215498   -0.05771919918860
C         4.05427427303569   -1.36574554415774   -0.31114448218860
C         4.75389128362728   -1.11126954963875   -1.68085102352828
C         3.97110117616090   -1.57560664748353   -2.89823385839714
N         3.51728230540566   -1.98366340121024   -4.00167314951758
C         6.18600641204835   -1.40983275586279   -1.84839995863167
C         6.97923092544730   -1.42410778081851   -2.98048727937190
N         6.62732023042191   -1.18645947348839   -4.25597259399694
N         8.28827047506867   -1.72510075919279   -2.83798814194868
C         8.53882151991356   -1.93662137178413   -1.56707752357355
S         7.19508338956721   -1.82952238228017   -0.50900694889126
H         2.69673452153123    2.02711419506127    2.53237984138721
H         2.20508077352715    0.31184297449634    2.60209605297628
H         1.38631975281586    1.51961637541630    1.53409290503814
H         4.33025964068599    0.62865191450573    1.27451088739465
H         3.92368260942881    3.04189443569667    0.64208963385322
H         2.45641495147650    2.59936207352170   -0.18126938357758
H         5.26313539156263    2.62041566364291   -1.30802472050012
H         3.68269754468373    2.54165924356616   -2.20549713105100
H         4.96314544450615    0.51197679502823   -0.50983435657329
H         2.00955276321751   -0.68072937852259    0.20780997028448
H         3.68257581887777   -2.39340753158903   -0.24883936930627
H         4.86959797702560   -1.43765479214707    0.41951545394943
H         5.65715781446908   -1.04437265615931   -4.52406406570840
H         7.33099329297541   -1.21409670293812   -4.98834028799207
H         9.47600310529986   -2.22319606099872   -1.10886689191664
