32
 energy: -49.229767837857 gnorm: 0.288774305553 xtb: 6.4.1 (79825abcba525fcdf90b791dcacef51065a7a4e7)
C         2.12850059446095    0.93562122134621    1.79035289797054
C         3.35070402743304    0.73546291283624    0.85580932494726
C         3.75023830938469    2.09968359428761    0.20448640503210
C         4.58471254011703    2.17534581112559   -1.13985490536465
C         4.54990303433982    0.55125716391354   -1.33257808566232
O         3.08532466051141    0.47716615310689   -1.42553796115107
C         2.98487128213702   -0.29860497943695   -0.19962566038701
C         3.91267199655916   -1.48362044900767   -0.55944030958990
C         4.82145884512474   -1.06635908702928   -1.75539909265546
C         4.03837094075076   -1.34377861679495   -3.02827063954505
N         3.12573268184353   -1.44309073254835   -3.89271766071209
C         6.24593679134500   -1.43347198666368   -1.82064512841790
C         6.87835944958475   -1.84558721381187   -2.97876136153927
N         6.37574688600136   -2.22922253249434   -4.16509402313330
N         8.21548212486424   -1.88412416454377   -2.79139762486703
C         8.57076900421966   -1.59031094531601   -1.56250559608972
S         7.31721110843035   -1.08300875146755   -0.50995973729515
H         2.39716885257073    1.63405377156421    2.59290344227668
H         1.76657723239141    0.00789845045745    2.25193963904521
H         1.35807379035496    1.44169592516659    1.19241647244884
H         4.19596347202582    0.36897182087090    1.43837069907013
H         4.28546224563695    2.76577820936718    0.88814553835619
H         2.79613266831897    2.62094262170990    0.00592221972322
H         5.62779961214010    2.50165763593899   -1.04384364749231
H         4.00284635287359    2.64516099592487   -1.94915088586053
H         5.02952499549958    0.32331943979796   -0.35994122691279
H         1.92520128633293   -0.58180458889464   -0.14520527839479
H         3.37304702281503   -2.41776900602204   -0.74464880231099
H         4.54391880800365   -1.70628984469176    0.30988898545157
H         5.43723604931895   -1.86148668483615   -4.29641261619511
H         7.06047806743110   -2.19200238675037   -4.91478723113414
H         9.62225662040902   -1.47108950791785   -1.33766920774927
