32
 energy: -49.227168588850 gnorm: 0.285231516925 xtb: 6.4.1 (79825abcba525fcdf90b791dcacef51065a7a4e7)
C         2.60493868112041    0.90962425095194    2.08149246206220
C         3.53869150131211    0.76432497516614    0.85096003256277
C         3.69111823135112    2.12185967384619    0.09016249805721
C         4.29951574813302    2.19707530281205   -1.37049510686631
C         4.43989030557392    0.57683713671300   -1.54696362298126
O         2.98709716103394    0.43434972516136   -1.37900454534761
C         3.02027137006243   -0.28905306664767   -0.11790955579234
C         3.91196802283192   -1.47566100352333   -0.55538080240029
C         4.67245599062492   -1.07244700200753   -1.85514789765345
C         3.93517629074942   -1.32318264561680   -3.16049862205641
N         3.36266409695266   -1.28800954300453   -4.28345577975671
C         6.11557314065403   -1.35685200978935   -1.92365364363827
C         6.94067632595004   -1.83427202704170   -2.92480570149126
N         6.63442380716837   -2.34033045934389   -4.13199039522380
N         8.21437893601562   -2.04785330002841   -2.52913916096783
C         8.44729770724941   -1.63339775589566   -1.30573978277352
S         7.05240463534291   -1.04136488429866   -0.50549851142798
H         3.06654246365722    1.52338132736449    2.86526681421682
H         2.39129178192244   -0.06216263269022    2.54485585555978
H         1.60435621331558    1.35226463622585    1.98098749361801
H         4.49906800336163    0.49976563165896    1.29350079990822
H         4.17133936895363    2.83003301157553    0.77237558112902
H         2.70032171060569    2.60561781000433    0.01429021954119
H         5.25567465771763    2.72862064376429   -1.45384915230072
H         3.55705299812693    2.55794881393923   -2.10040875123467
H         4.96893492984135    0.49779052014267   -0.57645926400932
H         1.98603507845786   -0.56440154659188    0.12826640444679
H         3.37687908411632   -2.41209126310764   -0.74222036478838
H         4.65211146951571   -1.61736234498763    0.24205008939504
H         5.76686393923476   -2.04764715601746   -4.57352541260911
H         7.35315819580298   -2.33319743221190   -4.85007954802487
H         9.45340107845504   -1.67079872939125   -0.90982497955128
