32
 energy: -49.228420723570 gnorm: 0.279288253532 xtb: 6.4.1 (79825abcba525fcdf90b791dcacef51065a7a4e7)
C         2.48700548592853    1.02186613702228    1.97290496692102
C         3.49017775476561    0.77234428482081    0.81592592001826
C         3.58168884527326    2.15475594629496    0.09100456218283
C         4.37953169210548    2.24192972648820   -1.27470883832240
C         4.46536681396423    0.62202064189637   -1.48576506585652
O         3.01670353935438    0.39651746554176   -1.38756188312257
C         3.04308376764935   -0.33328211947971   -0.12999703376333
C         3.98626805406288   -1.49103886632770   -0.53563866414496
C         4.74557777675214   -1.01639705532365   -1.81175852146930
C         3.96512018043252   -1.42681890798059   -3.04983366899301
N         3.22165545284578   -1.65241939554086   -4.04301278326960
C         6.16479186014255   -1.40127020097484   -1.88837698880940
C         6.95277435534779   -1.69315667083313   -2.98606385532594
N         6.57372407927050   -1.89802244991108   -4.25945756019231
N         8.25389558994857   -1.84028656523875   -2.65451651917553
C         8.52711712901779   -1.54456353244539   -1.40526535616012
S         7.12342642664562   -1.29876318427013   -0.45350367535724
H         2.75561151625245    1.89195507800706    2.58517457373563
H         2.55007720874581    0.12342581051606    2.60023846464032
H         1.45351175799905    1.10106700329653    1.60846708164282
H         4.37690896508789    0.42132846609321    1.34380153007611
H         3.94695799667007    2.88668355250288    0.81791372738461
H         2.55468766990420    2.40463514103398   -0.23192771770279
H         5.41257127486793    2.60833693490980   -1.22671733656854
H         3.74433607619056    2.58742144351916   -2.10622345405876
H         4.95297218917249    0.40797568634008   -0.51394149570155
H         2.08710976391654   -0.79548641024102    0.15026176924106
H         3.33968571489742   -2.33505324462850   -0.79583443271841
H         4.68612804094033   -1.87309356994209    0.21803090576830
H         5.58886279288096   -1.76170882233433   -4.47098451830713
H         7.28799331963640   -1.72940019633997   -4.96207269035940
H         9.43256375941703   -1.80071588508307   -0.87146414849376
