32
 energy: -49.229372034450 gnorm: 0.281917482809 xtb: 6.4.1 (79825abcba525fcdf90b791dcacef51065a7a4e7)
C         2.15738784847167    0.66737093224128    1.92955466096159
C         3.32177088134099    0.61259216510293    0.90562707058893
C         3.66422250288135    2.04170013430379    0.37146926988923
C         4.58491688365182    2.24999856205934   -0.90063889862419
C         4.56715378721551    0.66998228176848   -1.32401921659520
O         3.10398058636243    0.58320947203583   -1.42753490143464
C         2.94308445752178   -0.27965241262218   -0.26807187717187
C         3.85586916760142   -1.45513441712295   -0.69187435994185
C         4.74471756170773   -0.92740848940522   -1.85882417360251
C         4.02329265832759   -1.07588950062706   -3.18844432096113
N         3.61334988027223   -0.99656153794154   -4.37827377676935
C         6.18387100183896   -1.23289474415014   -1.91950264881313
C         6.80971223082117   -2.16200899487150   -2.72950268624104
N         6.24862651912703   -3.07244461405419   -3.54403963488937
N         8.14800392635916   -2.27010159878608   -2.58192679862908
C         8.61446132487981   -1.41662659833121   -1.70060477395413
S         7.40121643048838   -0.44630915046562   -0.97732296708485
H         2.56570388363433    1.24481733366468    2.76854912195266
H         1.86991479898980   -0.36857234155792    2.15069072555683
H         1.24623372246855    1.13835323700121    1.53563733159998
H         4.16984045577349    0.26251655104981    1.49416939295049
H         4.14111255535337    2.62879644867773    1.16231078648517
H         2.71632412876967    2.59520291856074    0.24270738433573
H         5.60247986061821    2.58964980167893   -0.67057188356581
H         4.05980601307986    2.82467341301546   -1.68055039565330
H         4.94113853614837    0.35165163871854   -0.33063293542154
H         1.92253191055616   -0.67565323877179   -0.18020867142424
H         3.18002435501866   -2.21954470469438   -1.08815901968681
H         4.50603263260337   -1.80589159752802    0.11932505396709
H         5.30569231860062   -2.95638237526083   -3.90553854545528
H         6.79406482296596   -3.63514880484708   -4.19067947433905
H         9.66574497920470   -1.45270316719732   -1.44783508152588
