32
 energy: -49.227000589563 gnorm: 0.282050920877 xtb: 6.4.1 (79825abcba525fcdf90b791dcacef51065a7a4e7)
C         2.33984134375192    1.31694090088626    1.83382668019338
C         3.40095157685954    0.93973266411834    0.76659882730891
C         3.68487140746037    2.25120736612261   -0.03612833132884
C         4.36971115794289    2.15548468411653   -1.46131507335485
C         4.35112739749506    0.52380163870681   -1.57656669930564
O         2.89878540917594    0.36527797468243   -1.41942401357645
C         2.99023638528875   -0.24160749989917   -0.10105401982758
C         4.05888604067327   -1.34116160210817   -0.30964718353869
C         4.72633615947216   -1.12325764772000   -1.70153303133882
C         3.95399697855423   -1.76964124822376   -2.83998403172312
N         3.37762791715402   -2.27301704998959   -3.84220738643863
C         6.15278413815604   -1.47972102716263   -1.78119729067745
C         6.94575636514336   -1.32431055135743   -2.90283593473740
N         6.59891752535257   -0.84792114140062   -4.11111429567988
N         8.27034070059563   -1.56031352108490   -2.78339448393092
C         8.52792653374020   -1.94791731635235   -1.55614412945428
S         7.17639740166521   -2.04234257825986   -0.50682598283145
H         2.68074518233502    2.10757771755255    2.51408841897023
H         2.29817494311032    0.47125326343968    2.53225112904630
H         1.32961572569992    1.52602587540744    1.45577283624179
H         4.19707148167632    0.69192293609610    1.46869600000035
H         4.33084056545861    2.88612928396950    0.57798445402098
H         2.65993118777476    2.63815616004226   -0.18181450020136
H         5.38792761125179    2.56346022994206   -1.48410573176863
H         3.82441338751569    2.70766555125389   -2.24362011454504
H         4.91648862918465    0.43855458914423   -0.62729597013357
H         2.02862949016569   -0.71977720851764    0.12857613472366
H         3.58015033578334   -2.32470018723857   -0.26971214491506
H         4.77393679507479   -1.37055841944893    0.52199328425386
H         5.60968394061250   -0.85185534494460   -4.34494811226748
H         7.20288970057767   -1.07493223915438   -4.89594906231613
H         9.56354107401981   -2.10990210949620   -1.28845996682167
