32
 energy: -49.231259563587 gnorm: 0.285176169188 xtb: 6.4.1 (79825abcba525fcdf90b791dcacef51065a7a4e7)
C         2.36826283086006    0.73173134844902    2.03067121119647
C         3.43304702001179    0.67766631011407    0.90349426357231
C         3.79335937850906    2.07642172242021    0.30465742879791
C         4.45434224918751    2.23503445932256   -1.12617072716796
C         4.39882870978159    0.63763768466293   -1.47439428651432
O         2.94434987949827    0.44217161335677   -1.40087439839080
C         2.96590496868433   -0.30995253647464   -0.15643985153884
C         3.87458919783917   -1.46196484247683   -0.64807287338678
C         4.68700757665994   -0.97947671063406   -1.88803237668346
C         3.97492266959967   -1.27058356392933   -3.19897940947906
N         3.30964935170374   -1.48439755904870   -4.24861512103049
C         6.13269700300078   -1.24419658966631   -1.97787567183518
C         6.92942201949149   -1.90969459303059   -2.89076790925338
N         6.57829976494409   -2.56127070847915   -4.01297214927134
N         8.23900092067861   -2.01818351636346   -2.57816502368561
C         8.52021115164895   -1.40231807582853   -1.45372687243070
S         7.14033294061817   -0.77598399969508   -0.65356598659850
H         2.79561423393462    1.39817205411185    2.79047750261748
H         2.05103466415736   -0.22068845866396    2.47449908349945
H         1.49372262777087    1.24892012415419    1.61247001737185
H         4.31513401236195    0.32014800396765    1.43477592326075
H         4.54963428480198    2.52429816166996    0.95657112698646
H         2.88204480028903    2.70099036998205    0.27505968423881
H         5.50101736989731    2.56177570658489   -1.08822924591419
H         3.89650895416114    2.90825093537760   -1.79688388395135
H         4.94817620256101    0.44372343719254   -0.53172260764979
H         1.95512363415395   -0.68436225600632    0.05380417942032
H         3.32190094403711   -2.33146030745110   -1.01772698371556
H         4.62603498231245   -1.88790004299145    0.02845950524494
H         5.67675777436039   -2.36618890980561   -4.44010438012311
H         7.29990638390665   -2.89382500796764   -4.64619687864838
H         9.50766641161888   -1.22214092864792   -1.05016812507154
