32
 energy: -49.230148763256 gnorm: 0.283573599229 xtb: 6.4.1 (79825abcba525fcdf90b791dcacef51065a7a4e7)
C         2.31973228353893    1.40618275924073    1.67045796936495
C         3.47271729102155    0.97913261968739    0.72416519159207
C         3.78483485171948    2.18263538629219   -0.22404943367430
C         4.43604658646054    2.00576354294027   -1.65721557939336
C         4.38499831913289    0.37589596090439   -1.52704791831557
O         2.93881438942141    0.18358377727425   -1.35186545582405
C         3.07408201848044   -0.30524338445160    0.01104443655406
C         4.10044177071487   -1.44900615977390   -0.17043499535198
C         4.71910375309090   -1.28343780375049   -1.59175918910569
C         3.80172125117635   -1.72812566814220   -2.71916873995722
N         3.36539975471294   -2.10215706263556   -3.84156092347360
C         6.16413923062952   -1.52555801623517   -1.73810340611814
C         6.90053024524793   -1.09461941787295   -2.82578479287302
N         6.37937899257785   -0.46227594916971   -3.89148819695387
N         8.22988205532945   -1.30324142884380   -2.70836275805133
C         8.51578238559369   -1.95218732115459   -1.60388966110781
S         7.18576939627829   -2.30724788919754   -0.58329515857979
H         2.55341667017770    2.30634977563032    2.25284013445642
H         2.09679173756885    0.60421229650139    2.38590277461523
H         1.39221253305061    1.48569045589434    1.08686335509044
H         4.28969288838845    0.85284076835559    1.43462859335990
H         4.46354396572163    2.79281212746193    0.37975085829177
H         2.83987263276269    2.71365019340268   -0.43974821242732
H         5.49078252445178    2.28630945948478   -1.76926156491359
H         3.81794330308136    2.33761632472745   -2.50696649425215
H         4.98645411737215    0.45141512449430   -0.59938253032717
H         2.12831062855761   -0.79454873052960    0.27967216069409
H         3.59786957286988   -2.41775643076883   -0.08632241558976
H         4.93206786411007   -1.49161640948845    0.54396687237068
H         5.46022722159757   -0.02827320360595   -3.90034535736338
H         7.02984155282717   -0.21185182557843   -4.63072310614028
H         9.50744564830934   -2.26114286544234   -1.30133090091793
