32
 energy: -49.228868719895 gnorm: 0.276238416777 xtb: 6.4.1 (79825abcba525fcdf90b791dcacef51065a7a4e7)
C         2.20733642749066    1.05445559321540    1.86313925885779
C         3.39673419313586    0.85515296663214    0.88701032721754
C         3.47010231125223    2.18775131962669    0.07230423968277
C         4.23056038957542    2.26501161971596   -1.31516105076948
C         4.34581772357593    0.63536499386454   -1.39874030855203
O         2.94025334104311    0.21385532805156   -1.32232565341739
C         3.10645972733144   -0.35234050908695    0.00679827385957
C         4.17294452533852   -1.42246390526637   -0.32784857916960
C         4.81421876877825   -0.96893384481265   -1.67447244794690
C         3.93654668726852   -1.20015471481633   -2.89374227262522
N         3.54212969859001   -1.19511349736789   -4.09142753519353
C         6.22717058244778   -1.34802469461546   -1.84187517576910
C         6.92006485992603   -1.63998745270764   -3.00191218934313
N         6.54865150906045   -1.70751500263276   -4.29213418297000
N         8.19360731723771   -2.06803970760817   -2.86281438733874
C         8.56249579247971   -2.01660281104184   -1.60424133280734
S         7.32424759715779   -1.53986918628665   -0.51976811734693
H         2.39637211126733    1.95737481098352    2.45734497520037
H         2.10566710970496    0.21504902897122    2.56298234819522
H         1.30064746317697    1.21583384517702    1.26391541297706
H         4.33139615181134    0.76518582965558    1.44060760193421
H         3.84782872845585    2.94383890965162    0.76742352425940
H         2.43240962096985    2.47036019167706   -0.18221961105747
H         5.20572253586602    2.75436518340120   -1.19974836751143
H         3.57172944136770    2.61443461716925   -2.12639462058135
H         4.94654527728900    0.64628245463853   -0.46759987404712
H         2.19673536164298   -0.89384009977074    0.29876380779193
H         3.65776860259908   -2.38244442188741   -0.43349898729717
H         4.93239739326657   -1.37061951361197    0.46229769011203
H         5.60033588378206   -1.54394872981645   -4.61957938714986
H         7.14855283266897   -2.24660947579035   -4.91001571404580
H         9.56376954537971   -2.24433265115683   -1.26368098404965
