32
 energy: -49.227761331221 gnorm: 0.280157404104 xtb: 6.4.1 (79825abcba525fcdf90b791dcacef51065a7a4e7)
C         2.16004805432033    1.09391373300686    1.84000528485718
C         3.30509409934176    0.86949044738888    0.81740076014801
C         3.51249719029319    2.22613495342357    0.06810315832677
C         4.22442435365469    2.27124807961249   -1.34626952438014
C         4.43350415715798    0.65496303150775   -1.48742943726383
O         3.00545826877449    0.34741543075600   -1.32862059977353
C         3.06645692671727   -0.35400815634850   -0.05619896507828
C         4.17227833666931   -1.40816106197020   -0.30209137620038
C         4.82971250250237   -0.98383197747977   -1.65043967773815
C         4.04491978601960   -1.43793889009866   -2.87038949660508
N         3.46582755438022   -1.69552331629722   -3.96050077500790
C         6.22087031135713   -1.43200878103723   -1.82927998574397
C         6.94419197629703   -1.57372091450048   -2.99879015429504
N         6.54027534435809   -1.35656164504758   -4.26246489095560
N         8.22707655896611   -1.96215311723116   -2.83201220252215
C         8.57196971505368   -2.06117669234399   -1.56948551593103
S         7.30817426281847   -1.62173214542102   -0.49881972277832
H         2.34147782627643    2.00399052582074    2.42560028597406
H         2.24073041304459    0.29860298235921    2.59212997302466
H         1.20463601701237    1.17132364620894    1.30298333047258
H         4.14398458163233    0.62665829809685    1.46966781438944
H         3.96028419474190    2.92189373493249    0.78430356599263
H         2.51281151063983    2.61294965892608   -0.20107932347720
H         5.13612102050785    2.87983783609973   -1.39270115507949
H         3.49857551922770    2.52439972750174   -2.13577079990927
H         4.90153817126583    0.61765206010885   -0.48365289397084
H         2.07696315403317   -0.78003612670586    0.15702941082206
H         3.69886604806742   -2.39347905086717   -0.35830608119708
H         4.97777603934681   -1.48840369326696    0.43853146552563
H         5.54664318253627   -1.37910375219478   -4.47568729465267
H         7.14783930593262   -1.59250544024993   -5.04187402031643
H         9.61018300481028   -2.29480471855939   -1.37474859409963
