32
 energy: -49.227852047539 gnorm: 0.279912262606 xtb: 6.4.1 (79825abcba525fcdf90b791dcacef51065a7a4e7)
C         2.07435225848177    1.06181313281816    1.82047878819343
C         3.27272499309647    0.85435301156076    0.85711003355633
C         3.55760616321844    2.20381339245295    0.12039661820880
C         4.47143895824667    2.26667763743092   -1.17199777996265
C         4.51124032359344    0.63914194062324   -1.33187668277434
O         3.05010210622985    0.48732613995874   -1.36575734989161
C         2.99302393426606   -0.27258647308889   -0.12719059578841
C         4.03453816586737   -1.36376355351678   -0.47233273903925
C         4.85734536170219   -0.96893701730660   -1.73622289716945
C         4.03014551672039   -1.33915383007536   -2.95649753536778
N         3.31728166822711   -2.00972832506686   -3.75160453206084
C         6.26711320568142   -1.37609289584246   -1.85847296789845
C         6.94093205416136   -1.63654869515969   -3.03709994118331
N         6.46032713616524   -1.60238883623733   -4.29210299311275
N         8.23806399141755   -1.97811172564669   -2.87813217141956
C         8.59379729925333   -1.95254291194668   -1.61498901117328
S         7.38555810177152   -1.38508788869116   -0.54038744048730
H         2.31409089636532    1.82250944518330    2.57409974211146
H         1.82627428328931    0.11392490609616    2.31513584857033
H         1.27799345288909    1.45945591265862    1.17635930563207
H         4.19719219041449    0.62587086178564    1.38749980784024
H         3.99692406107297    2.84132910228964    0.89377234414749
H         2.55236067545654    2.60018607183578   -0.11160875188207
H         5.47746831752340    2.65261214909255   -0.96538778941143
H         4.03370572432915    2.73815771880508   -2.06662099622321
H         4.98445085208937    0.53103130282706   -0.33568434426727
H         1.99406745794154   -0.71295546120543   -0.00792110612192
H         3.45267842077797   -2.25042518723101   -0.74325932758933
H         4.61201204547200   -1.62348366768073    0.42369014011089
H         5.44998940677998   -1.70982997483134   -4.26126642259769
H         6.94506685215376   -2.16408406809239   -4.98622683820355
H         9.49171040861742   -2.38948361810448   -1.19878446250101
