32
 energy: -49.226481257849 gnorm: 0.285225001110 xtb: 6.4.1 (79825abcba525fcdf90b791dcacef51065a7a4e7)
C         2.12465801370923    1.15099169650123    1.73129482322178
C         3.31764032092672    1.03276851144976    0.74639241039208
C         3.49247569970441    2.34370636193212   -0.08776692432895
C         4.29378767577242    2.25362205730702   -1.45125858262056
C         4.46446974822375    0.62778012447504   -1.39189965158295
O         3.03002459094281    0.31811959985232   -1.31707800197024
C         3.10237849731978   -0.27996821816682    0.00648860961954
C         4.16872227841868   -1.36370539312598   -0.28155146705492
C         4.86561461361672   -1.00087756439237   -1.62803393455699
C         4.01549790960093   -1.59306498579130   -2.74024159720720
N         3.41897873444520   -2.03730699369282   -3.75850190348995
C         6.28404164378801   -1.36234697281160   -1.78794318986847
C         6.98021252470655   -1.36071253984404   -2.98225220609197
N         6.56128818043540   -0.86728879158579   -4.16047800642466
N         8.18222291127316   -1.97356223929468   -2.91842750311175
C         8.49784636791492   -2.23288794001477   -1.67108528500762
S         7.28596798826353   -1.92900287723843   -0.49821685250383
H         2.18147282859238    2.01431237295751    2.40622261368302
H         2.06299846213139    0.25483617310654    2.36202753767027
H         1.17377816979463    1.16460124559260    1.18098642101762
H         4.14788670359166    1.12725556895147    1.44633536691881
H         3.99674043715016    3.05039786967373    0.57844677668516
H         2.48540053631370    2.74888034365241   -0.29534809350736
H         5.31032241532787    2.66634097032069   -1.45821766434205
H         3.70155405487424    2.58759494586966   -2.31842407716153
H         5.03806436889499    0.66287497524596   -0.44439089157579
H         2.16970793667429   -0.81168123599773    0.23772655950467
H         3.70716385174893   -2.35606150544967   -0.26355172960017
H         4.87953272984655   -1.52790473232498    0.53794514502767
H         5.54737756311148   -0.83246905149951   -4.22411498095751
H         7.08786967782785   -1.30367214719892   -4.91185243561971
H         9.47138123157101   -2.66466126603987   -1.48084064185697
