32
 energy: -49.195043018518 gnorm: 0.286811636178 xtb: 6.4.1 (79825abcba525fcdf90b791dcacef51065a7a4e7)
C         2.86207423349812    1.00511148990303    2.08727531836410
C         3.62250233994104    0.88499187142524    0.74022793823419
C         3.28774613469341    2.11156441682586   -0.16993981234251
C         4.10437546268864    2.09068270178382   -1.52714505431621
C         4.33648735957364    0.47183069237527   -1.48893356603782
O         2.91428093841279    0.13708573992167   -1.33274282053914
C         3.10591924934715   -0.35402873090843    0.02256306309928
C         3.91811294451635   -1.59683051123107   -0.41370240062278
C         4.67077850786841   -1.17371747355045   -1.71169620227482
C         3.82744015174486   -1.29107610262499   -2.97082194154279
N         3.37919002574456   -1.44490489549813   -4.13934608657273
C         6.10182856887667   -1.51018793071851   -1.79565881908969
C         6.94783516306570   -1.58677684129697   -2.88627221769980
N         6.64174868567309   -1.70620666066415   -4.18981670327964
N         8.26051236764337   -1.80632658346660   -2.65569948588094
C         8.54411903156156   -1.45263406903393   -1.42395297842008
S         7.15094339297864   -1.28467713830964   -0.44035356522078
H         2.95238425055994    2.03707085918960    2.44918966968405
H         3.42409563800487    0.43905356891185    2.84121878504024
H         1.87949857186976    0.54500296825191    1.91394830663124
H         4.68310963546063    0.84377804825016    0.98836215550490
H         3.68534471940827    3.04677972410061    0.23604566121157
H         2.19326933665964    2.19231136872883   -0.30054131250885
H         5.06669757287258    2.61460402768485   -1.58345501622744
H         3.54282087124259    2.40673742441634   -2.42102446858002
H         4.97240998652086    0.50627340661525   -0.58205352890418
H         2.13442179120203   -0.59715420616078    0.47328114766637
H         3.24864423464860   -2.38550360091592   -0.77138555458556
H         4.52356572834007   -2.00673834653695    0.40433800853178
H         5.70664367195982   -1.65962332822482   -4.58565179214424
H         7.44311932959953   -2.02115271721816   -4.72916455984998
H         9.46912793764205   -1.49333365231815   -0.86440545983872
