32
 energy: -49.227048602714 gnorm: 0.284622640337 xtb: 6.4.1 (79825abcba525fcdf90b791dcacef51065a7a4e7)
C         2.31440272646006    1.22872290756767    1.87415248552289
C         3.37849162365837    0.97021514467406    0.77501426526396
C         3.40822946912845    2.26262063321939   -0.10461689185186
C         4.14583222360256    2.20450240851381   -1.50529173677723
C         4.37195249526687    0.58500821525127   -1.45918269419668
O         2.94991236972770    0.22797970671087   -1.36195432273985
C         3.07583426864275   -0.29725149967566   -0.01175116837741
C         4.16159876900235   -1.35955167361781   -0.30700734501270
C         4.82930850627666   -1.03134638076636   -1.67695734771852
C         3.95667964127276   -1.60659530907500   -2.78058672161461
N         3.26623255936378   -2.04142672852386   -3.74196313817152
C         6.25876673332924   -1.34641646987792   -1.83678972063830
C         7.06021962254725   -1.36289951127297   -2.96303666986315
N         6.67783273619827   -0.81115007461432   -4.12773984097428
N         8.32493972705038   -1.80700954734205   -2.79649342283025
C         8.61252165510809   -2.07380911332560   -1.54395790678417
S         7.21180897185009   -2.01432035022067   -0.55852360577122
H         2.38942377431556    2.21571481258239    2.34775237806146
H         2.29997805302031    0.46574655478664    2.66306274252327
H         1.33594119187774    1.18667734337385    1.37611410201298
H         4.33901233332664    0.75579808546233    1.24361035614232
H         4.00679987960338    3.01619980743517    0.41631343144777
H         2.35145344949925    2.55510371243175   -0.24294395529367
H         5.12505737648696    2.69921970973700   -1.49523681860054
H         3.47483971275638    2.37017209678104   -2.36353247207905
H         5.02245550664509    0.52510494957569   -0.56404431172712
H         2.16195838802228   -0.80334506336546    0.32701760146638
H         3.61144292323543   -2.30123270387834   -0.40026085477035
H         4.96440718098275   -1.51650087041099    0.42419251082347
H         5.67738726670066   -0.63499595165343   -4.16455568352411
H         7.28152810775387   -0.88333799535070   -4.94175632657404
H         9.56210698938692   -2.46414891350523   -1.20290968259217
