32
 energy: -49.229560265622 gnorm: 0.281713690094 xtb: 6.4.1 (79825abcba525fcdf90b791dcacef51065a7a4e7)
C         2.49396388456363    1.24474191629790    1.87178829198164
C         3.48364800400725    0.95031160240732    0.71375012147409
C         3.59397543817872    2.20977992480508   -0.20631219104842
C         4.23713041173008    2.07729408907954   -1.64788243033623
C         4.32567524823581    0.44483828018795   -1.59073600780400
O         2.89853985297720    0.17373128591123   -1.36958811353677
C         3.07124738971467   -0.32182032816479   -0.01335310213015
C         4.08095890947402   -1.45733731604334   -0.30597270487598
C         4.73057010211972   -1.19637021275203   -1.69889031674222
C         3.88627379529906   -1.69393704535456   -2.86077724903852
N         3.42986871223132   -2.16665481755826   -3.93700791884363
C         6.17882661053423   -1.45894423996970   -1.74101317825209
C         6.97069692462070   -1.16755199513989   -2.83603033769833
N         6.55091363647866   -0.57100295837011   -3.96523000280184
N         8.27000582884548   -1.52522247206167   -2.74462178975553
C         8.49295736905202   -2.04766781050098   -1.56137453114851
S         7.18018185567826   -2.04580173477335   -0.45990611649056
H         2.83677230911341    2.15074456104570    2.38726828987943
H         2.52553298033528    0.43171566247351    2.60847824189135
H         1.45682768061956    1.45970123405123    1.57966157121604
H         4.45228730491532    0.87056467530553    1.20724311687631
H         4.08056101857068    2.99411880107776    0.38155132099378
H         2.54752314960074    2.56246455438751   -0.25111669354981
H         5.22478914414572    2.54598293712707   -1.74056036902112
H         3.49909530974326    2.35641235942288   -2.41707144026595
H         4.83851222402207    0.44406294841839   -0.60838529185603
H         2.08493620874810   -0.72751443533061    0.24869010773407
H         3.61213361157539   -2.44527298607254   -0.25783976111358
H         4.77119316024370   -1.47362015445005    0.54672839650849
H         5.57378477107085   -0.35302811135256   -4.14124977745122
H         7.20016475629896   -0.64091576920704   -4.74360473278180
H         9.50629546339336   -2.13785963780935   -1.19340347038131
