32
 energy: -49.230455080437 gnorm: 0.277503910993 xtb: 6.4.1 (79825abcba525fcdf90b791dcacef51065a7a4e7)
C         2.32072807057139    0.90254526637739    1.97866479957833
C         3.37096042016347    0.77937678775564    0.84329798275647
C         3.53009362134009    2.15947959224210    0.12570469248872
C         4.44277519043993    2.27171923319914   -1.16415583709546
C         4.40422740157247    0.66077311355120   -1.44590842696168
O         2.96608682949898    0.36661696134600   -1.37999423931294
C         3.02693785595626   -0.35085468288232   -0.11654487596725
C         4.02662278275132   -1.47018331320096   -0.49373963161275
C         4.77496709569270   -0.96130219908529   -1.76312484173773
C         3.91504895346288   -1.27266378194477   -2.97720268898900
N         3.47899719405729   -1.45660560040446   -4.14599027694079
C         6.17250630764134   -1.40534737315886   -1.89681999998259
C         6.96055964077899   -1.78238288112183   -2.96819611001689
N         6.46731350901481   -2.02774065058715   -4.19444586390665
N         8.28697937471077   -1.94514990300930   -2.77171481878402
C         8.57451092555388   -1.70730747156979   -1.51334794916792
S         7.24853706738963   -1.18446419547204   -0.56200997980738
H         2.61415150842930    1.72875869924564    2.63847695916764
H         2.26113274889706   -0.03458711985984    2.54695316645118
H         1.32835382634853    1.18600101724847    1.60177856759047
H         4.24286714098600    0.59980975744713    1.47233801016408
H         3.92636034706329    2.91998079899229    0.80551871521820
H         2.50160653653422    2.37300706607719   -0.21791809146923
H         5.45346806915329    2.68774838369305   -1.06851141734147
H         3.94624476428936    2.92864916657381   -1.89638199462272
H         4.88990696644302    0.52723588495238   -0.45884284334361
H         2.01536792304396   -0.72312508421456    0.09370525684697
H         3.44763357142688   -2.36014372288388   -0.75995908078973
H         4.75412524725513   -1.70808634809236    0.29234556342117
H         5.48978115525321   -2.03088436360419   -4.47318844329504
H         7.07718663793315   -2.56605800558160   -4.80317505569204
H         9.58339584192067   -1.80399589295740   -1.13493820657741
