32
 energy: -49.227410471289 gnorm: 0.279674306748 xtb: 6.4.1 (79825abcba525fcdf90b791dcacef51065a7a4e7)
C         2.35994207491749    0.89476360929809    1.98535982733566
C         3.45685638198103    0.69575373543640    0.90629062517156
C         3.65517480521684    2.09990033626929    0.24751192034786
C         4.32759331261245    2.26449515822205   -1.17729945779206
C         4.37170663079445    0.65101242287485   -1.44327940584837
O         2.92240198690429    0.45538044438970   -1.30057340263104
C         3.06422421982593   -0.36738974620776   -0.10989780951376
C         4.02794414343104   -1.46958317402611   -0.61085286776638
C         4.75693415982082   -0.93890103051630   -1.88257139733854
C         3.99476973753481   -1.31709669042532   -3.14212039184091
N         3.47987463581112   -1.47786466598863   -4.28189090820936
C         6.19883861594884   -1.23527844421873   -1.91776127848883
C         6.88837681149915   -1.91671190646031   -2.90326425626863
N         6.47725025189974   -2.17244848922206   -4.15735930662026
N         8.21651451817635   -2.05147805789087   -2.69741082046906
C         8.54324341111935   -1.61138979677173   -1.50480814225703
S         7.24670140805784   -1.00551116602784   -0.56220238315448
H         2.55918122928707    1.70102232203574    2.70252695116698
H         2.24753047396487   -0.08728471246238    2.46250247415642
H         1.42031900809137    1.14303729621249    1.47285060415337
H         4.36069481412732    0.45897945926179    1.46769158177485
H         4.06921475397244    2.73997968830390    1.03262710395112
H         2.64586795835150    2.49941798465251    0.03980630877163
H         5.26914634332784    2.81049843494199   -1.31545341250496
H         3.63589047226766    2.75050839907074   -1.88411828995754
H         4.92259920798103    0.56460148292652   -0.48564387491364
H         2.07341471623583   -0.78350674210150    0.11639242753358
H         3.47969062320668   -2.40349634209407   -0.77008571268796
H         4.70115570600562   -1.67522024420428    0.23074514030737
H         5.51807064146411   -2.21861415716713   -4.49070600011332
H         7.17275034453994   -2.65939407686238   -4.71543246860605
H         9.47704578363576   -1.72926016422699   -0.97141235578161
