32
 energy: -49.228332843734 gnorm: 0.279656965654 xtb: 6.4.1 (79825abcba525fcdf90b791dcacef51065a7a4e7)
C         2.44446156801514    1.35695979072702    1.80222729796925
C         3.48157180912447    0.87044245023377    0.75584328882021
C         3.84866150014280    2.15688207773828   -0.05364142280614
C         4.47649629850504    2.05255437219378   -1.50424983509822
C         4.39571799718798    0.42001233078192   -1.56981824042294
O         2.94604263711152    0.24040973385045   -1.41074251403189
C         2.98961436538590   -0.31235466541412   -0.06637436347958
C         3.95470999082905   -1.48243631180670   -0.37303669490745
C         4.67373466618553   -1.24267109786112   -1.73532673496435
C         3.84846613269105   -1.70058899946963   -2.92681037954074
N         3.19009298697692   -2.22010587855508   -3.86845104854370
C         6.11930267603269   -1.51068855052701   -1.81697312624991
C         6.95467612356834   -1.23089422956453   -2.88228854656158
N         6.54430158877308   -0.88424570322677   -4.11460676084757
N         8.27717675473326   -1.41413059394980   -2.67758429114302
C         8.50958521775795   -1.77458666386042   -1.43710522200301
S         7.11115772069223   -1.89305466388616   -0.45375301400050
H         2.80788334432814    2.32345060002502    2.17357371899755
H         2.31351248663490    0.64853922036882    2.63030520060039
H         1.41208541412179    1.56031080606678    1.48592858495903
H         4.27324276056151    0.48388211922394    1.39770403604302
H         4.53928193348116    2.80333086611753    0.49652572406124
H         2.91909641068911    2.73714236911817   -0.19738780349412
H         5.52756759198753    2.36697703796774   -1.49349195169447
H         3.83315097931222    2.62452158879242   -2.19215597137965
H         4.91353514216259    0.39790514175963   -0.59033267596877
H         2.01851223765645   -0.72947390051912    0.23201514465634
H         3.35582359454461   -2.37091790292265   -0.59679187475169
H         4.71921080726956   -1.69186109066041    0.38555897131659
H         5.57434122971022   -0.99000059387252   -4.39968502882016
H         7.29541751631099   -0.73224035023568   -4.78169091736310
H         9.45508621941779   -2.04806134617656   -0.98807202479663
