32
 energy: -49.220195982071 gnorm: 0.282733453439 xtb: 6.4.1 (79825abcba525fcdf90b791dcacef51065a7a4e7)
C         2.63883939723727    1.03434965736770    1.98685090222006
C         3.65993371390372    0.82912059283837    0.83686668577786
C         3.79010246600086    2.15167460068716    0.01294056851387
C         4.19358502761514    2.07562749770717   -1.51700852575632
C         4.32436657546062    0.44602652709622   -1.57458226350959
O         2.91029068705671    0.20779584917729   -1.25402593505746
C         3.14091675050488   -0.37224170410730    0.05942020343469
C         3.93064367112061   -1.58829876823642   -0.48102315173622
C         4.62395498309767   -1.20253421129923   -1.82297066648281
C         3.78616444764013   -1.49770586625762   -3.05640934055838
N         3.37601195720273   -1.62765676884224   -4.24170586242730
C         6.06884434310121   -1.47763552121559   -1.89211097196992
C         6.96037674690945   -1.54671080086190   -2.94635438876171
N         6.68651660902896   -1.57849815397942   -4.26209403989542
N         8.26554092801312   -1.48917187394063   -2.60324645915148
C         8.43216385821574   -1.49924602440911   -1.30137630265113
S         6.96772526491843   -1.39053787918847   -0.41807689579534
H         2.96649592904481    1.88065381129404    2.60368841133248
H         2.51928403265948    0.11566448931339    2.57544622692335
H         1.67451803954868    1.33067424649915    1.55156583211432
H         4.60739270221245    0.72849223022327    1.36634983082709
H         4.72767077677578    2.56604404460830    0.39608562746524
H         2.98041109334051    2.89647477543590    0.11843399393430
H         5.12188543612222    2.62926754383732   -1.70534136509481
H         3.39038417873284    2.38107104258132   -2.20681080928609
H         4.94574480684135    0.35496745570165   -0.66155836977161
H         2.14558812748433   -0.69421233715629    0.39366553502617
H         3.25816143816626   -2.44162486352816   -0.61418864577736
H         4.61421734481675   -1.94718513747694    0.29853776641631
H         5.73990146612935   -1.52898358331536   -4.62917017890158
H         7.51721916162324   -1.76410918701389   -4.81685872002926
H         9.37509837870082   -1.65097510250934   -0.79319903470316
