32
 energy: -49.227653198946 gnorm: 0.286254893398 xtb: 6.4.1 (79825abcba525fcdf90b791dcacef51065a7a4e7)
C         2.48255946510752    1.29448007737245    1.80040007010514
C         3.51733346384952    0.90461511024223    0.71206907967937
C         3.93952536521831    2.15533297850958   -0.12602760988878
C         4.47331287412000    2.00316345062490   -1.60968555395741
C         4.41034052305232    0.37069223218449   -1.52548313471814
O         2.95192851304163    0.31252171162269   -1.35586171780673
C         3.01077333730491   -0.31480234495457   -0.04522274677362
C         3.87475582877039   -1.56430937905255   -0.33985612082429
C         4.64432803740306   -1.30072669647536   -1.66974361621092
C         3.92566884437812   -1.90366537841465   -2.86573029041117
N         3.43470278216103   -2.51190642745294   -3.85519240606296
C         6.09045253333644   -1.52315190212772   -1.83532535501733
C         6.88466613121493   -1.06053722437257   -2.86791578964579
N         6.43168441513851   -0.58871434887774   -4.04238220770093
N         8.20765825164541   -1.26725718983642   -2.69058555468398
C         8.44051626486990   -1.70718995202239   -1.47610340073441
S         7.06860189224049   -1.99550541455794   -0.49053714452323
H         2.73924350142748    2.21317531114184    2.34279329305722
H         2.39796236071034    0.52620819867628    2.57970875657395
H         1.53817261842635    1.41757044368804    1.25251387749703
H         4.38426581029665    0.62044607394069    1.30858669617733
H         4.80736300150856    2.55384542587199    0.40837128053836
H         3.15933761192441    2.92954203747922   -0.01042621193333
H         5.44380901264260    2.49371614288028   -1.75536842905883
H         3.83399457804292    2.36252240844661   -2.43211354645668
H         4.95206295940375    0.26622839042689   -0.56442153360742
H         1.99758242357089   -0.59466089334125    0.27287701457688
H         3.25503706599864   -2.46389856916110   -0.40927343510286
H         4.62185467415740   -1.76723761018542    0.43760838870115
H         5.44293285297628   -0.45757331306986   -4.23846684856527
H         7.07726319576733   -0.09639409676182   -4.65322657351726
H         9.41399961586225   -1.86766812046687   -1.03229231356320
