32
 energy: -49.223631935260 gnorm: 0.276595234418 xtb: 6.4.1 (79825abcba525fcdf90b791dcacef51065a7a4e7)
C         2.36650107136886    0.87234168090413    1.99424319818307
C         3.40194543260161    0.77010762876488    0.84332207036250
C         3.64408811096946    2.13967909387951    0.12876753815038
C         4.37114610595080    2.22155846457333   -1.27622641351236
C         4.48976295125718    0.61653016649103   -1.56919749160373
O         3.03115219444456    0.48037678249567   -1.45501452902168
C         3.01434652183618   -0.26300001271273   -0.20526206960239
C         3.95980218441322   -1.44305036101100   -0.53410425187091
C         4.75556335043783   -1.03861489952710   -1.81219428185387
C         3.89983665127961   -1.57826491729564   -2.94661039088487
N         3.10424906275832   -2.07301558001297   -3.79059043109886
C         6.19072570983289   -1.36199344797773   -1.87465760944095
C         6.96938017544758   -1.55629194706106   -3.00025785324627
N         6.59221135660033   -1.71813090675416   -4.28038771712009
N         8.28717385882865   -1.71547975740374   -2.75012515791424
C         8.56314290699551   -1.62785043794110   -1.46993268028752
S         7.22287140441889   -1.18188979507782   -0.49967132295194
H         2.82354790137370    1.49624718829501    2.77265706586186
H         2.24003396622252   -0.09169657998445    2.50351393376506
H         1.39582629120439    1.28083690449851    1.68100342090005
H         4.36692014208741    0.47967914479264    1.25881227432461
H         4.06199356931674    2.77835173431386    0.91297975001569
H         2.65737894905824    2.62217612005191    0.00605677435255
H         5.34505557989949    2.72342970556326   -1.21831444726971
H         3.64402193750835    2.72694111197078   -1.93207195258248
H         5.05634489071912    0.49380220887700   -0.62477277059834
H         2.01697814328431   -0.68305779452476   -0.01852193903495
H         3.38094834543451   -2.31409505263959   -0.85712160572258
H         4.59324673536702   -1.79079445102503    0.29149230107971
H         5.62231414319469   -1.85815496514942   -4.55051633654977
H         7.33060852749660   -2.19064792339558   -4.79398223080182
H         9.49687202818149   -1.93598283946189   -1.01871686697441
