32
 energy: -49.217528452481 gnorm: 0.286100913579 xtb: 6.4.1 (79825abcba525fcdf90b791dcacef51065a7a4e7)
C         2.09623950217371    1.10973572163212    1.75560836154678
C         3.34213436176495    0.90696058631135    0.85347504851688
C         3.70320988189467    2.22868975863571    0.10008025161719
C         4.52846215779376    2.24050221564314   -1.25200876886603
C         4.53064606021206    0.60465295779049   -1.25521685448735
O         3.07232020329058    0.43789482578464   -1.32302724441016
C         2.97046013401940   -0.25956459197781   -0.05104155702173
C         3.97478071715174   -1.39061092593254   -0.37756378977137
C         4.81336620661741   -1.02084470715332   -1.63866065989898
C         4.11474948308955   -1.57528665940961   -2.86948114084657
N         3.63905223360291   -2.33426829235183   -3.75700531538693
C         6.22601268568380   -1.36646570745526   -1.86918705097716
C         6.85934957001598   -1.47861234391435   -3.09284473006780
N         6.35642008551542   -1.45278594625721   -4.33926984228010
N         8.17892977053483   -1.72529486749495   -2.94336849409805
C         8.50164385095075   -1.81639151253548   -1.67439740761447
S         7.27207771946350   -1.56557435397341   -0.50740401378478
H         2.18614060772264    1.89463409164450    2.51713996041813
H         1.91852137353024    0.15665008578878    2.27016099961612
H         1.16324431115139    1.28103274399328    1.20119485269899
H         4.09443824683223    0.48574476909585    1.52038816456139
H         4.03500627564549    2.94273110348165    0.86007539594445
H         2.73585542353281    2.62000294903178   -0.26400163914810
H         5.56254267769954    2.59289191400927   -1.15087921283475
H         4.02564056433946    2.74734755955984   -2.09137328402207
H         5.02576494451058    0.49283531882636   -0.27014356124274
H         1.96950666830270   -0.68888685051299    0.08980820446327
H         3.42227490922568   -2.33032577687133   -0.47657973312938
H         4.72102978850035   -1.64586857826113    0.38515731065387
H         5.35035872232965   -1.42353595322725   -4.48161373343262
H         6.98195671263363   -1.44262936760389   -5.13982140361863
H         9.50815572115197   -1.97593721168558   -1.31125778549339
