32
 energy: -49.225999489277 gnorm: 0.286682543652 xtb: 6.4.1 (79825abcba525fcdf90b791dcacef51065a7a4e7)
C         2.59433541731062    1.38051290951328    1.81738895783780
C         3.48837024977985    1.07834298945345    0.58588121228474
C         3.48066135209631    2.27530654585418   -0.42018343334335
C         3.97072981151834    2.01296039824244   -1.90353537085762
C         4.27838423381950    0.41972823360498   -1.69622432035782
O         2.87895593403885    0.11144473315208   -1.37113579664981
C         3.05167475903494   -0.26660671576736    0.02242726624822
C         4.10723768643678   -1.37692583531020   -0.19556531942850
C         4.74936397428300   -1.20482681242122   -1.60566238826831
C         3.99915436527818   -1.93837214792158   -2.70542918705430
N         3.31455767561480   -2.56596095069096   -3.55836517595564
C         6.19505507928988   -1.46884331843664   -1.69752562548527
C         7.07561363052755   -0.83862196086174   -2.55686739617340
N         6.65765943683056    0.20437210129979   -3.29487709969496
N         8.36600394032329   -1.23734499604899   -2.57686992471313
C         8.52861972739427   -2.17021214353613   -1.66799942573447
S         7.10462884447080   -2.67758206367609   -0.86088021151021
H         3.02540045311495    2.25320519440609    2.32401421095597
H         2.65786823445598    0.48960364500105    2.45532676295717
H         1.59659592140016    1.69166777653937    1.47842644947844
H         4.49692733739796    0.95330880956616    0.98000816978195
H         4.16158700618654    3.01764382773179    0.00738190845613
H         2.51252333864698    2.80745300674357   -0.45157153076014
H         4.88602915924175    2.56260330396185   -2.15621695810682
H         3.16756284873183    2.08194943189046   -2.65481287850139
H         4.97396275463822    0.52410461694520   -0.83989997346027
H         2.10077201915458   -0.62151174750107    0.44182027222930
H         3.73947179218320   -2.39939908870146   -0.06355199824484
H         4.94694635018134   -1.22878982057018    0.49489301087852
H         5.69786223842148    0.11965390337254   -3.61874278632533
H         7.29703410828081    0.55067793015549   -4.00449272758321
H         9.40792764806841   -2.73409907700137   -1.38650259621174
