32
 energy: -49.227978877607 gnorm: 0.292528284562 xtb: 6.4.1 (79825abcba525fcdf90b791dcacef51065a7a4e7)
C         2.26215548852610    1.40284272152439    1.71088880810304
C         3.42729483170260    1.04201920373644    0.75199727570631
C         3.65451725669003    2.28680571592444   -0.16660152995517
C         4.38986292260895    2.10911788185850   -1.55836995772607
C         4.33371739219666    0.47620223194607   -1.47804551591560
O         2.88319668838366    0.25478200518923   -1.40004811371877
C         3.03754560928977   -0.20500917881053   -0.02908451892329
C         3.97890525387578   -1.41496745901262   -0.23976293327393
C         4.77377258882672   -1.15765456366622   -1.55592933184372
C         4.03109395634378   -1.80861408730751   -2.71138179972759
N         3.48371946152181   -2.43487171398274   -3.65912791379081
C         6.19743222292823   -1.49705749839122   -1.71768611205358
C         6.94128554473190   -1.11552460164724   -2.81866090775603
N         6.46503004253185   -0.46022123831287   -3.89147908893429
N         8.26322239264780   -1.38996688979320   -2.77801951295375
C         8.55642535221322   -2.13427926997947   -1.73746115298897
S         7.26307838549822   -2.31187857927072   -0.62735854246540
H         2.62694813785245    2.16202186324996    2.41420338231318
H         1.95426270571139    0.56437714297535    2.34877428949906
H         1.39352575891953    1.72358562031449    1.11944699272377
H         4.35777518086930    0.91374450422438    1.30508761652521
H         4.22740831927791    3.04597033534108    0.37469452590298
H         2.69856586730663    2.72248188047140   -0.50982085420948
H         5.41359565825047    2.50000256752799   -1.61230189769547
H         3.84065004608312    2.51650499127929   -2.42246226084835
H         4.96354094722920    0.45331968398951   -0.56655554126732
H         2.05480988982468   -0.50264507783514    0.36041191994082
H         3.38097694456237   -2.32675251226949   -0.14353104625890
H         4.69044131522902   -1.38599465990187    0.59490144997857
H         5.46822224090891   -0.58361469411953   -4.04776434609421
H         6.99237970990914   -0.63974458677896   -4.74115887332374
H         9.56572866160405   -2.44200887190258   -1.49871299870172
