32
 energy: -49.230384715954 gnorm: 0.282935631676 xtb: 6.4.1 (79825abcba525fcdf90b791dcacef51065a7a4e7)
C         2.49131611757314    0.80090532522556    2.07312180870846
C         3.45635473457117    0.70503259587010    0.86203751848898
C         3.57872078899385    2.12048977158277    0.20900245841627
C         4.32534414834081    2.25446619325364   -1.18165546093907
C         4.39664301495791    0.64179482133912   -1.44665617705749
O         2.94566802963408    0.42438972398377   -1.36586357237731
C         3.03109141212734   -0.35683886537044   -0.14227972216051
C         4.01038427321509   -1.46181033636835   -0.60549236783966
C         4.74584579790776   -0.95695645593872   -1.88398245469405
C         3.99486397564573   -1.14460699817285   -3.19211235034259
N         3.36619108391649   -1.37244232007303   -4.26117811309927
C         6.16977677390038   -1.32276499224183   -1.96626885354357
C         6.92446556994672   -1.94222646099894   -2.94491224872992
N         6.57260718559382   -2.37667877380380   -4.16746183555087
N         8.22084084213049   -2.05016005847114   -2.58125196290557
C         8.47037722548708   -1.55287109534447   -1.39248542928766
S         7.10204236253400   -0.94192372505646   -0.56121007754618
H         2.72655309589504    1.72387073701471    2.61798550650463
H         2.72367535851253   -0.06731080244113    2.70314587059425
H         1.44081766783631    0.84324743289325    1.75397107928349
H         4.44939263996231    0.55147757172173    1.28447517918263
H         4.23740206275105    2.61399733314614    0.93019991809363
H         2.57903938796548    2.57758511598213    0.09429750773812
H         5.33232387494950    2.68210362783076   -1.09891331433356
H         3.77753873754606    2.79335360904796   -1.97144285934913
H         4.86981065379654    0.53577197542698   -0.45021910809376
H         2.00531759161179   -0.74043039474258   -0.06036693024661
H         3.43871767184280   -2.36265819729200   -0.85003532441709
H         4.70672765787115   -1.69912265084645    0.20849557780392
H         5.73073012823654   -2.11153442185990   -4.67166249088211
H         7.35425324976069   -2.77401831087101   -4.68071884495135
H         9.44724820868594   -1.60466814047823   -0.93049895053813
