32
 energy: -49.227222545466 gnorm: 0.282075278395 xtb: 6.4.1 (79825abcba525fcdf90b791dcacef51065a7a4e7)
C         2.63256943103311    0.85181863101284    2.07654461287990
C         3.56929409286452    0.68981275679435    0.85036466100232
C         3.67134329576443    2.05258452273221    0.09050524575469
C         4.44770722672559    2.22267164159648   -1.27977027037018
C         4.40834204891337    0.60795917556426   -1.53894567393099
O         2.95482874596022    0.45070731850858   -1.39166444954859
C         3.02506340006188   -0.31369447243769   -0.15654109686705
C         3.84431953832039   -1.51327063786749   -0.68981289870003
C         4.70041416218125   -1.02180018225325   -1.89641008967785
C         3.95676184665080   -1.31530158639360   -3.18917008167146
N         3.21448075624192   -1.57457291269541   -4.17498816901953
C         6.11778611142762   -1.42074940525112   -1.88849635473893
C         6.97807645545487   -1.81120422709309   -2.89769214831698
N         6.54898376732033   -2.10512034320460   -4.13731847032399
N         8.28675217576860   -1.85682192998737   -2.56637025836440
C         8.50310776327428   -1.40893687494122   -1.35174281439273
S         7.06480983688122   -1.05949581362327   -0.48814237718007
H         3.00550284738741    1.63865311717178    2.74429471175884
H         2.59226877526853   -0.12420831929159    2.57701202338257
H         1.61249768073746    1.13849631027177    1.78591328740235
H         4.47012345140561    0.32427185859737    1.34335890214069
H         4.18890350960102    2.74447277938862    0.76203973828709
H         2.63993357014276    2.44057796594501    0.00617643013248
H         5.48828397774027    2.54838252839075   -1.15794805975305
H         3.92967754564503    2.84378237740574   -2.02818275761326
H         4.91511167062692    0.37585445432505   -0.58117365190746
H         1.96931531940642   -0.58121103042692   -0.01549153520362
H         3.22894208458062   -2.37200476998752   -0.97619918732534
H         4.44234122610131   -1.87584404848225    0.15558535189088
H         5.55581161539682   -2.03747690321627   -4.34301303867775
H         7.26892966301858   -2.24313906159690   -4.84081742188223
H         9.37738723202743   -1.44723485730872   -0.71569247684396
