32
 energy: -49.224518249193 gnorm: 0.285133412136 xtb: 6.4.1 (79825abcba525fcdf90b791dcacef51065a7a4e7)
C         2.58874006957617    0.73536169206783    2.04386155498766
C         3.60417328071206    0.57690143080320    0.88153543468109
C         3.97407933022552    2.00062708741174    0.35132601820340
C         4.43752793843467    2.23155551603498   -1.14574212300703
C         4.35127880547501    0.62266369256064   -1.42866622586620
O         2.89147707165161    0.60752244505062   -1.26172172424267
C         2.96539747781482   -0.33484286900129   -0.15661716402646
C         3.73095718952406   -1.52798026842479   -0.77700727331998
C         4.60168312754122   -0.97131061437403   -1.94417188500671
C         4.00333906669666   -1.23014154209267   -3.31726371580127
N         3.67197021539209   -1.51163602360235   -4.50090034986693
C         6.04609283232172   -1.25723145592511   -1.95398249027878
C         6.87902407496976   -1.97242562643803   -2.79407382274224
N         6.44040623693728   -2.62644486438179   -3.88359384177703
N         8.20247298973983   -1.98408158359819   -2.52419529019682
C         8.41346188005398   -1.41478644164912   -1.36052982139427
S         7.04211683165685   -0.64367277706951   -0.68125655481636
H         2.87090982925179    1.41893131703712    2.85453462754759
H         2.29443784915498   -0.21736602193292    2.50257332227588
H         1.64900837164128    1.05981550787113    1.57606769795888
H         4.48469807021998    0.11133964167296    1.32435065511580
H         4.76663809127084    2.34308318457892    1.02371797283313
H         3.08975013684791    2.65919488322137    0.42686818798975
H         5.45884437642825    2.62366419166279   -1.22875854956630
H         3.75517807948997    2.83620261536941   -1.76465657975113
H         4.98081735726908    0.47529467562288   -0.52867796173262
H         1.93091027612199   -0.64426693619274    0.04377513729217
H         2.98753480959999   -2.20009511745983   -1.21713864516985
H         4.39433792885714   -1.99582264501955   -0.03887644086998
H         5.65080830076080   -2.29213528001840   -4.42953249701821
H         7.21561211918678   -3.03166566526114   -4.40044389903015
H         9.44198149947690   -1.19768183439938   -1.10478709699295
