32
 energy: -49.232025112725 gnorm: 0.283034058539 xtb: 6.4.1 (79825abcba525fcdf90b791dcacef51065a7a4e7)
C         2.51550550296450    1.05238333200372    1.92006159037267
C         3.51209272632538    0.79511572619866    0.75909494324230
C         3.71933681756314    2.17479941608119    0.05307082319091
C         4.42097994698545    2.11965131917224   -1.36607722177072
C         4.45743490563046    0.49252651916671   -1.53086129106747
O         2.99617045855477    0.37366229690889   -1.43238111026022
C         2.97615713855317   -0.30490496538100   -0.14633342890608
C         3.92681695047397   -1.48625698107732   -0.45487151373476
C         4.70749840001016   -1.16623542922398   -1.76576459683503
C         3.84087043887585   -1.47175125134393   -2.97655206679605
N         3.23412103248040   -1.67677219702285   -4.06276646037890
C         6.14159085555027   -1.49487782955300   -1.82525711124119
C         6.92518549602401   -1.69648756720681   -2.94613335308124
N         6.52990983966706   -1.83546937839799   -4.22348289363383
N         8.24538051714897   -1.76715665838462   -2.66940550424164
C         8.50447242397559   -1.57340489347404   -1.39737475368245
S         7.12252453994455   -1.34796653726987   -0.40944090446170
H         2.81108855015664    1.74476479321552    2.71838271016150
H         2.24193275214419    0.08905865319609    2.36937650537345
H         1.57815421127494    1.49431679912568    1.55500761939506
H         4.44333774585925    0.49724119625711    1.24097717144415
H         4.30136701839261    2.81408173111585    0.72396237550615
H         2.74418633433796    2.68643947718157   -0.04053614778490
H         5.44646827537128    2.50468549836329   -1.30402419218246
H         3.82488577459423    2.60474204525830   -2.15576910893285
H         5.05271239020684    0.42609655765634   -0.59852708498499
H         1.93399724033401   -0.60951520420891    0.01852847097449
H         3.38628965354351   -2.43334222763399   -0.54969030895487
H         4.60402775848747   -1.70919628347344    0.37907764983139
H         5.69494364373509   -1.28864561175355   -4.41607582795540
H         7.23996754388621   -1.78454576136444   -4.94840142482598
H         9.51763159523645   -1.40406557916233   -1.05792807267845
