32
 energy: -49.225855752735 gnorm: 0.288046405344 xtb: 6.4.1 (79825abcba525fcdf90b791dcacef51065a7a4e7)
C         2.17909247071216    1.26935684458247    1.77940749011344
C         3.33988043525787    1.11170742673392    0.76209031596661
C         3.38427344940091    2.33803465317940   -0.20698039832189
C         4.13424329519532    2.24374975566870   -1.59909431499651
C         4.47334786758036    0.65338381223175   -1.42087508964207
O         3.05986841751871    0.25555218519738   -1.36677632287553
C         3.12085710119124   -0.19590162694831    0.01425319831139
C         4.12173449423282   -1.35351664178092   -0.21534283257429
C         4.90384067382857   -0.98234446682304   -1.51182234999453
C         4.08366976726587   -1.58409104894936   -2.64125185483838
N         3.64532656147779   -2.29834961283015   -3.58344615290999
C         6.28467308467066   -1.43679574517655   -1.74621994834341
C         7.00658093930621   -1.26792349738118   -2.91299405132833
N         6.60414798695627   -0.51783940893747   -3.95347577323672
N         8.24495035841735   -1.80729812540994   -2.91486580343177
C         8.50225781507006   -2.34123128783036   -1.74378133020991
S         7.20488844695492   -2.37696482262107   -0.62477662305706
H         2.49213904330813    2.14714801894730    2.35868508698605
H         2.21323432590741    0.43149286054788    2.48760143074417
H         1.15741149437252    1.40180115697408    1.39753902916542
H         4.23936551365581    0.98878218135049    1.36539204951835
H         3.73595785906238    3.24727657209170    0.29014505552480
H         2.33681304841581    2.55420128701845   -0.48546734245327
H         5.05529243431570    2.83868955530927   -1.63708538663811
H         3.50548010773013    2.43303155667641   -2.48401453698417
H         5.00452452194418    0.73275020965104   -0.45156212480145
H         2.12007742656716   -0.52899998632377    0.32011202939273
H         3.54150138503734   -2.27141933066904   -0.35287472395918
H         4.85735760552383   -1.40925919956606    0.59677725012949
H         5.60806886847136   -0.49800043922739   -4.15524202146090
H         7.19145674230318   -0.31048310873636   -4.75619230015177
H         9.48969759353431   -2.74494108930718   -1.56385790436896
