32
 energy: -49.230007907484 gnorm: 0.289238884963 xtb: 6.4.1 (79825abcba525fcdf90b791dcacef51065a7a4e7)
C         2.29096260109035    1.31979280011734    1.85933891442946
C         3.34808489244463    1.01995426179690    0.76398254356981
C         3.45720716072687    2.28018662455868   -0.15517684151331
C         4.28004179105894    2.15129629639096   -1.50263964994712
C         4.45721014776898    0.52656057130774   -1.43290409029138
O         3.00214623833356    0.34467766897126   -1.33894420573834
C         3.03991354652533   -0.25201895781885   -0.01331248202003
C         4.04275787150117   -1.39556377822771   -0.29818246902072
C         4.82124445323702   -1.11713643311974   -1.61983100199832
C         4.08504666163034   -1.63394914563104   -2.84510961389811
N         3.42738604436373   -2.15007286079349   -3.78911118472834
C         6.24434961241951   -1.45719533618938   -1.78505207434685
C         6.95299154941199   -1.30538021368450   -2.96225612399538
N         6.59448846574289   -0.72458638851526   -4.12041617808643
N         8.25724750046979   -1.59907846609550   -2.76952555663702
C         8.57004255256748   -2.12101285206170   -1.60656625204542
S         7.21810011346549   -2.18394577860273   -0.55542078890339
H         2.67229983844899    2.00282905625725    2.62883317671907
H         2.05391382818221    0.37116863884798    2.35797752004975
H         1.35969567970002    1.79409550161430    1.52025794670461
H         4.25528752396761    0.97579496795670    1.36663529963256
H         3.92896002624226    3.07503263441112    0.43066064620180
H         2.40798176690409    2.57396280632142   -0.34031978661441
H         5.22629176972515    2.70617588907421   -1.48147791370155
H         3.67895410798401    2.51779308046755   -2.35035909075550
H         4.96149783110251    0.51427104175025   -0.44621356744972
H         2.01794941354627   -0.61557517287173    0.15838575564429
H         3.46656085633264   -2.32544920141744   -0.33614197656150
H         4.79455109392817   -1.57278916486192    0.48103876597890
H         5.59613155174528   -0.74067246499146   -4.31094577498270
H         7.28197931779131   -0.92706942722329   -4.84058212113572
H         9.55886408044966   -2.44777822966498   -1.31356841562097
